[H]c1c([H])c([H])c(N2C([H])([H])C([H])([H])N(C(=O)C([H])([H])Sc3nnc([H])n3-c3c([H])c([H])c([H])c([H])c3C([H])([H])[H])C([H])([H])C2([H])[H])c([H])c1[H]


 28 31  0  0  0  0  0  0  0  0999 V2000
   -0.2484  -52.1813  -20.4236 C   0  0  0  0  0  0  0  0  0  0  0  0
   -0.7104  -53.3356  -21.2191 C   0  0  0  0  0  0  0  0  0  0  0  0
   -1.5210  -54.1432  -20.7137 O   0  0  0  0  0  0  0  0  0  0  0  0
   -0.2552  -53.5450  -22.5403 N   0  0  0  0  0  0  0  0  0  0  0  0
    0.6866  -52.6322  -23.1135 C   0  0  0  0  0  0  0  0  0  0  0  0
    1.0528  -52.9802  -24.5435 C   0  0  0  0  0  0  0  0  0  0  0  0
   -0.1013  -53.4124  -25.2950 N   0  0  0  0  0  0  0  0  0  0  0  0
   -1.2421  -54.0551  -24.6451 C   0  0  0  0  0  0  0  0  0  0  0  0
   -0.7216  -54.6618  -23.3344 C   0  0  0  0  0  0  0  0  0  0  0  0
   -0.1363  -53.2223  -26.6886 C   0  0  0  0  0  0  0  0  0  0  0  0
    0.9501  -53.5354  -27.4657 C   0  0  0  0  0  0  0  0  0  0  0  0
    0.8832  -53.3258  -28.8365 C   0  0  0  0  0  0  0  0  0  0  0  0
   -0.2458  -52.8118  -29.4404 C   0  0  0  0  0  0  0  0  0  0  0  0
   -1.3459  -52.4948  -28.6573 C   0  0  0  0  0  0  0  0  0  0  0  0
   -1.2804  -52.7018  -27.2993 C   0  0  0  0  0  0  0  0  0  0  0  0
    1.2162  -52.5921  -19.4286 S   0  0  0  0  0  0  0  0  0  0  0  0
    2.6250  -50.1489  -19.3759 N   0  0  0  0  0  0  0  0  0  0  0  0
    2.9640  -49.1958  -18.5029 C   0  0  0  0  0  0  0  0  0  0  0  0
    2.4576  -49.5508  -17.3141 N   0  0  0  0  0  0  0  0  0  0  0  0
    1.8299  -50.6835  -17.4537 N   0  0  0  0  0  0  0  0  0  0  0  0
    1.9187  -51.0787  -18.7294 C   0  0  0  0  0  0  0  0  0  0  0  0
    1.0131  -48.6271  -21.0890 C   0  0  0  0  0  0  0  0  0  0  0  0
    2.1700  -49.4158  -21.6046 C   0  0  0  0  0  0  0  0  0  0  0  0
    2.4800  -49.4193  -22.9473 C   0  0  0  0  0  0  0  0  0  0  0  0
    3.5645  -50.1630  -23.4001 C   0  0  0  0  0  0  0  0  0  0  0  0
    4.3553  -50.9077  -22.5540 C   0  0  0  0  0  0  0  0  0  0  0  0
    4.0494  -50.9076  -21.2109 C   0  0  0  0  0  0  0  0  0  0  0  0
    2.9609  -50.1610  -20.7582 C   0  0  0  0  0  0  0  0  0  0  0  0
 22 23  1  0  0  0
 23 24  2  0  0  0
 24 25  1  0  0  0
 25 26  2  0  0  0
 26 27  1  0  0  0
 27 28  2  0  0  0
 28 17  1  0  0  0
 17 18  1  0  0  0
 18 19  2  0  0  0
 19 20  1  0  0  0
 20 21  2  0  0  0
 21 16  1  0  0  0
 16  1  1  0  0  0
  1  2  1  0  0  0
  2  3  2  0  0  0
  2  4  1  0  0  0
  4  5  1  0  0  0
  5  6  1  0  0  0
  6  7  1  0  0  0
  7 10  1  0  0  0
 10 11  2  0  0  0
 11 12  1  0  0  0
 12 13  2  0  0  0
 13 14  1  0  0  0
 14 15  2  0  0  0
  7  8  1  0  0  0
  8  9  1  0  0  0
 28 23  1  0  0  0
 21 17  1  0  0  0
  9  4  1  0  0  0
 15 10  1  0  0  0
M  END
> <minimizedAffinity>
-7.31738

> <CNNscore>
0.4380743802

> <CNNaffinity>
6.5347733498

> <CNN_VS>
2.8627166748

> <CNNaffinity_variance>
0.0967333764

$$$$
[H]c1c([H])c([H])c(N2C([H])([H])C([H])([H])N(C(=O)C([H])([H])Sc3nnc([H])n3-c3c([H])c([H])c([H])c([H])c3C([H])([H])[H])C([H])([H])C2([H])[H])c([H])c1[H]


 28 31  0  0  0  0  0  0  0  0999 V2000
    3.2104  -51.0252  -23.6537 C   0  0  0  0  0  0  0  0  0  0  0  0
    3.1082  -49.8999  -22.7039 C   0  0  0  0  0  0  0  0  0  0  0  0
    3.3047  -48.7339  -23.1119 O   0  0  0  0  0  0  0  0  0  0  0  0
    2.7920  -50.1148  -21.3436 N   0  0  0  0  0  0  0  0  0  0  0  0
    2.5852  -51.4499  -20.8712 C   0  0  0  0  0  0  0  0  0  0  0  0
    2.2281  -51.5079  -19.3984 C   0  0  0  0  0  0  0  0  0  0  0  0
    1.3160  -50.4505  -19.0332 N   0  0  0  0  0  0  0  0  0  0  0  0
    1.2909  -49.1779  -19.7521 C   0  0  0  0  0  0  0  0  0  0  0  0
    2.6675  -49.0142  -20.4116 C   0  0  0  0  0  0  0  0  0  0  0  0
    0.4304  -50.6357  -17.9557 C   0  0  0  0  0  0  0  0  0  0  0  0
    0.2656  -49.6572  -17.0084 C   0  0  0  0  0  0  0  0  0  0  0  0
   -0.6098  -49.8783  -15.9537 C   0  0  0  0  0  0  0  0  0  0  0  0
   -1.3200  -51.0547  -15.8313 C   0  0  0  0  0  0  0  0  0  0  0  0
   -1.1559  -52.0457  -16.7879 C   0  0  0  0  0  0  0  0  0  0  0  0
   -0.2888  -51.8276  -17.8327 C   0  0  0  0  0  0  0  0  0  0  0  0
    1.7856  -51.0867  -24.7807 S   0  0  0  0  0  0  0  0  0  0  0  0
   -0.0218  -53.2250  -25.1232 N   0  0  0  0  0  0  0  0  0  0  0  0
   -0.6960  -54.1080  -24.3808 C   0  0  0  0  0  0  0  0  0  0  0  0
   -0.3841  -53.8670  -23.1000 N   0  0  0  0  0  0  0  0  0  0  0  0
    0.4527  -52.8696  -23.0590 N   0  0  0  0  0  0  0  0  0  0  0  0
    0.6955  -52.4504  -24.3067 C   0  0  0  0  0  0  0  0  0  0  0  0
   -2.2055  -51.8762  -26.2461 C   0  0  0  0  0  0  0  0  0  0  0  0
   -1.1373  -52.4743  -27.0990 C   0  0  0  0  0  0  0  0  0  0  0  0
   -1.1953  -52.3809  -28.4726 C   0  0  0  0  0  0  0  0  0  0  0  0
   -0.1853  -52.9471  -29.2431 C   0  0  0  0  0  0  0  0  0  0  0  0
    0.8872  -53.6072  -28.6866 C   0  0  0  0  0  0  0  0  0  0  0  0
    0.9497  -53.7035  -27.3139 C   0  0  0  0  0  0  0  0  0  0  0  0
   -0.0645  -53.1350  -26.5423 C   0  0  0  0  0  0  0  0  0  0  0  0
 22 23  1  0  0  0
 23 24  2  0  0  0
 24 25  1  0  0  0
 25 26  2  0  0  0
 26 27  1  0  0  0
 27 28  2  0  0  0
 28 17  1  0  0  0
 17 18  1  0  0  0
 18 19  2  0  0  0
 19 20  1  0  0  0
 20 21  2  0  0  0
 21 16  1  0  0  0
 16  1  1  0  0  0
  1  2  1  0  0  0
  2  3  2  0  0  0
  2  4  1  0  0  0
  4  5  1  0  0  0
  5  6  1  0  0  0
  6  7  1  0  0  0
  7 10  1  0  0  0
 10 11  2  0  0  0
 11 12  1  0  0  0
 12 13  2  0  0  0
 13 14  1  0  0  0
 14 15  2  0  0  0
  7  8  1  0  0  0
  8  9  1  0  0  0
 28 23  1  0  0  0
 21 17  1  0  0  0
  9  4  1  0  0  0
 15 10  1  0  0  0
M  END
> <minimizedAffinity>
-8.02554

> <CNNscore>
0.4250285625

> <CNNaffinity>
6.3003768921

> <CNN_VS>
2.6778402328

> <CNNaffinity_variance>
0.2938566804

$$$$
[H]c1c([H])c([H])c(N2C([H])([H])C([H])([H])N(C(=O)C([H])([H])Sc3nnc([H])n3-c3c([H])c([H])c([H])c([H])c3C([H])([H])[H])C([H])([H])C2([H])[H])c([H])c1[H]


 28 31  0  0  0  0  0  0  0  0999 V2000
    3.9298  -51.3634  -22.0528 C   0  0  0  0  0  0  0  0  0  0  0  0
    4.1119  -52.0325  -23.3558 C   0  0  0  0  0  0  0  0  0  0  0  0
    5.0562  -52.8395  -23.5037 O   0  0  0  0  0  0  0  0  0  0  0  0
    3.2398  -51.7795  -24.4384 N   0  0  0  0  0  0  0  0  0  0  0  0
    2.1701  -50.8424  -24.2766 C   0  0  0  0  0  0  0  0  0  0  0  0
    1.3111  -50.7046  -25.5188 C   0  0  0  0  0  0  0  0  0  0  0  0
    1.0779  -51.9839  -26.1454 N   0  0  0  0  0  0  0  0  0  0  0  0
    2.0352  -53.0820  -26.0247 C   0  0  0  0  0  0  0  0  0  0  0  0
    3.3985  -52.4492  -25.7118 C   0  0  0  0  0  0  0  0  0  0  0  0
   -0.0924  -52.1872  -26.8994 C   0  0  0  0  0  0  0  0  0  0  0  0
   -0.0202  -52.5464  -28.2215 C   0  0  0  0  0  0  0  0  0  0  0  0
   -1.1958  -52.7295  -28.9371 C   0  0  0  0  0  0  0  0  0  0  0  0
   -2.4357  -52.5610  -28.3561 C   0  0  0  0  0  0  0  0  0  0  0  0
   -2.5118  -52.1983  -27.0194 C   0  0  0  0  0  0  0  0  0  0  0  0
   -1.3479  -52.0166  -26.3099 C   0  0  0  0  0  0  0  0  0  0  0  0
    3.0154  -52.4092  -20.8807 S   0  0  0  0  0  0  0  0  0  0  0  0
    0.2785  -51.7903  -20.5934 N   0  0  0  0  0  0  0  0  0  0  0  0
   -0.8787  -52.0054  -21.2259 C   0  0  0  0  0  0  0  0  0  0  0  0
   -0.6032  -52.7332  -22.3169 N   0  0  0  0  0  0  0  0  0  0  0  0
    0.6795  -52.9569  -22.3515 N   0  0  0  0  0  0  0  0  0  0  0  0
    1.2532  -52.3801  -21.2886 C   0  0  0  0  0  0  0  0  0  0  0  0
    1.1441  -49.1362  -20.8279 C   0  0  0  0  0  0  0  0  0  0  0  0
    0.8636  -49.7491  -19.4967 C   0  0  0  0  0  0  0  0  0  0  0  0
    1.0245  -49.0228  -18.3368 C   0  0  0  0  0  0  0  0  0  0  0  0
    0.7550  -49.6193  -17.1096 C   0  0  0  0  0  0  0  0  0  0  0  0
    0.3276  -50.9235  -16.9995 C   0  0  0  0  0  0  0  0  0  0  0  0
    0.1654  -51.6538  -18.1561 C   0  0  0  0  0  0  0  0  0  0  0  0
    0.4363  -51.0539  -19.3865 C   0  0  0  0  0  0  0  0  0  0  0  0
 22 23  1  0  0  0
 23 24  2  0  0  0
 24 25  1  0  0  0
 25 26  2  0  0  0
 26 27  1  0  0  0
 27 28  2  0  0  0
 28 17  1  0  0  0
 17 18  1  0  0  0
 18 19  2  0  0  0
 19 20  1  0  0  0
 20 21  2  0  0  0
 21 16  1  0  0  0
 16  1  1  0  0  0
  1  2  1  0  0  0
  2  3  2  0  0  0
  2  4  1  0  0  0
  4  5  1  0  0  0
  5  6  1  0  0  0
  6  7  1  0  0  0
  7 10  1  0  0  0
 10 11  2  0  0  0
 11 12  1  0  0  0
 12 13  2  0  0  0
 13 14  1  0  0  0
 14 15  2  0  0  0
  7  8  1  0  0  0
  8  9  1  0  0  0
 28 23  1  0  0  0
 21 17  1  0  0  0
  9  4  1  0  0  0
 15 10  1  0  0  0
M  END
> <minimizedAffinity>
-7.16726

> <CNNscore>
0.4143366516

> <CNNaffinity>
6.5567979813

> <CNN_VS>
2.7167217731

> <CNNaffinity_variance>
0.3065304160

$$$$
[H]c1c([H])c([H])c(N2C([H])([H])C([H])([H])N(C(=O)C([H])([H])Sc3nnc([H])n3-c3c([H])c([H])c([H])c([H])c3C([H])([H])[H])C([H])([H])C2([H])[H])c([H])c1[H]


 28 31  0  0  0  0  0  0  0  0999 V2000
    0.2360  -50.4438  -20.9522 C   0  0  0  0  0  0  0  0  0  0  0  0
    1.0540  -49.3157  -20.4653 C   0  0  0  0  0  0  0  0  0  0  0  0
    0.9130  -48.1870  -20.9857 O   0  0  0  0  0  0  0  0  0  0  0  0
    1.9921  -49.4864  -19.4226 N   0  0  0  0  0  0  0  0  0  0  0  0
    2.1680  -50.7813  -18.8387 C   0  0  0  0  0  0  0  0  0  0  0  0
    3.1888  -50.7911  -17.7172 C   0  0  0  0  0  0  0  0  0  0  0  0
    3.0690  -49.6197  -16.8824 N   0  0  0  0  0  0  0  0  0  0  0  0
    2.5556  -48.3550  -17.4060 C   0  0  0  0  0  0  0  0  0  0  0  0
    2.7811  -48.3797  -18.9244 C   0  0  0  0  0  0  0  0  0  0  0  0
    3.4600  -49.6833  -15.5324 C   0  0  0  0  0  0  0  0  0  0  0  0
    3.4566  -50.8780  -14.8578 C   0  0  0  0  0  0  0  0  0  0  0  0
    3.8398  -50.9016  -13.5236 C   0  0  0  0  0  0  0  0  0  0  0  0
    4.2248  -49.7572  -12.8562 C   0  0  0  0  0  0  0  0  0  0  0  0
    4.2298  -48.5480  -13.5358 C   0  0  0  0  0  0  0  0  0  0  0  0
    3.8502  -48.5237  -14.8574 C   0  0  0  0  0  0  0  0  0  0  0  0
    0.9384  -51.1852  -22.4558 S   0  0  0  0  0  0  0  0  0  0  0  0
    0.0979  -53.4008  -23.9860 N   0  0  0  0  0  0  0  0  0  0  0  0
   -0.6783  -54.4810  -23.8596 C   0  0  0  0  0  0  0  0  0  0  0  0
   -1.1812  -54.4629  -22.6176 N   0  0  0  0  0  0  0  0  0  0  0  0
   -0.7287  -53.4069  -22.0037 N   0  0  0  0  0  0  0  0  0  0  0  0
    0.0711  -52.7271  -22.8341 C   0  0  0  0  0  0  0  0  0  0  0  0
   -1.3475  -52.2189  -26.0747 C   0  0  0  0  0  0  0  0  0  0  0  0
    0.1210  -52.4598  -26.1827 C   0  0  0  0  0  0  0  0  0  0  0  0
    0.8128  -52.1066  -27.3210 C   0  0  0  0  0  0  0  0  0  0  0  0
    2.1815  -52.3422  -27.3940 C   0  0  0  0  0  0  0  0  0  0  0  0
    2.8881  -52.9213  -26.3640 C   0  0  0  0  0  0  0  0  0  0  0  0
    2.2011  -53.2763  -25.2240 C   0  0  0  0  0  0  0  0  0  0  0  0
    0.8279  -53.0394  -25.1523 C   0  0  0  0  0  0  0  0  0  0  0  0
 22 23  1  0  0  0
 23 24  2  0  0  0
 24 25  1  0  0  0
 25 26  2  0  0  0
 26 27  1  0  0  0
 27 28  2  0  0  0
 28 17  1  0  0  0
 17 18  1  0  0  0
 18 19  2  0  0  0
 19 20  1  0  0  0
 20 21  2  0  0  0
 21 16  1  0  0  0
 16  1  1  0  0  0
  1  2  1  0  0  0
  2  3  2  0  0  0
  2  4  1  0  0  0
  4  5  1  0  0  0
  5  6  1  0  0  0
  6  7  1  0  0  0
  7 10  1  0  0  0
 10 11  2  0  0  0
 11 12  1  0  0  0
 12 13  2  0  0  0
 13 14  1  0  0  0
 14 15  2  0  0  0
  7  8  1  0  0  0
  8  9  1  0  0  0
 28 23  1  0  0  0
 21 17  1  0  0  0
  9  4  1  0  0  0
 15 10  1  0  0  0
M  END
> <minimizedAffinity>
-6.90548

> <CNNscore>
0.3984964192

> <CNNaffinity>
5.8987984657

> <CNN_VS>
2.3506500721

> <CNNaffinity_variance>
0.4016215801

$$$$
[H]c1c([H])c([H])c(N2C([H])([H])C([H])([H])N(C(=O)C([H])([H])Sc3nnc([H])n3-c3c([H])c([H])c([H])c([H])c3C([H])([H])[H])C([H])([H])C2([H])[H])c([H])c1[H]


 28 31  0  0  0  0  0  0  0  0999 V2000
    3.0365  -50.8205  -23.9499 C   0  0  0  0  0  0  0  0  0  0  0  0
    2.9291  -49.6981  -22.9973 C   0  0  0  0  0  0  0  0  0  0  0  0
    2.8402  -48.5295  -23.4347 O   0  0  0  0  0  0  0  0  0  0  0  0
    2.9241  -49.9186  -21.6017 N   0  0  0  0  0  0  0  0  0  0  0  0
    3.0446  -51.2534  -21.0993 C   0  0  0  0  0  0  0  0  0  0  0  0
    2.9949  -51.3225  -19.5851 C   0  0  0  0  0  0  0  0  0  0  0  0
    2.0035  -50.4222  -19.0466 N   0  0  0  0  0  0  0  0  0  0  0  0
    1.6221  -49.1961  -19.7451 C   0  0  0  0  0  0  0  0  0  0  0  0
    2.7961  -48.8248  -20.6622 C   0  0  0  0  0  0  0  0  0  0  0  0
    1.3886  -50.7184  -17.8163 C   0  0  0  0  0  0  0  0  0  0  0  0
    0.0534  -51.0285  -17.7574 C   0  0  0  0  0  0  0  0  0  0  0  0
   -0.5220  -51.3063  -16.5248 C   0  0  0  0  0  0  0  0  0  0  0  0
    0.2112  -51.2800  -15.3564 C   0  0  0  0  0  0  0  0  0  0  0  0
    1.5614  -50.9672  -15.4130 C   0  0  0  0  0  0  0  0  0  0  0  0
    2.1321  -50.6918  -16.6335 C   0  0  0  0  0  0  0  0  0  0  0  0
    1.5112  -51.0325  -24.9155 S   0  0  0  0  0  0  0  0  0  0  0  0
   -0.3692  -53.1348  -24.8853 N   0  0  0  0  0  0  0  0  0  0  0  0
   -0.8397  -54.0586  -24.0423 C   0  0  0  0  0  0  0  0  0  0  0  0
   -0.1911  -53.9000  -22.8804 N   0  0  0  0  0  0  0  0  0  0  0  0
    0.6482  -52.9120  -23.0069 N   0  0  0  0  0  0  0  0  0  0  0  0
    0.5576  -52.4169  -24.2472 C   0  0  0  0  0  0  0  0  0  0  0  0
    1.2893  -54.1885  -26.8821 C   0  0  0  0  0  0  0  0  0  0  0  0
    0.0252  -53.4706  -27.2183 C   0  0  0  0  0  0  0  0  0  0  0  0
   -0.3646  -53.3030  -28.5294 C   0  0  0  0  0  0  0  0  0  0  0  0
   -1.5481  -52.6303  -28.8137 C   0  0  0  0  0  0  0  0  0  0  0  0
   -2.3613  -52.1161  -27.8288 C   0  0  0  0  0  0  0  0  0  0  0  0
   -1.9759  -52.2808  -26.5165 C   0  0  0  0  0  0  0  0  0  0  0  0
   -0.7881  -52.9559  -26.2330 C   0  0  0  0  0  0  0  0  0  0  0  0
 22 23  1  0  0  0
 23 24  2  0  0  0
 24 25  1  0  0  0
 25 26  2  0  0  0
 26 27  1  0  0  0
 27 28  2  0  0  0
 28 17  1  0  0  0
 17 18  1  0  0  0
 18 19  2  0  0  0
 19 20  1  0  0  0
 20 21  2  0  0  0
 21 16  1  0  0  0
 16  1  1  0  0  0
  1  2  1  0  0  0
  2  3  2  0  0  0
  2  4  1  0  0  0
  4  5  1  0  0  0
  5  6  1  0  0  0
  6  7  1  0  0  0
  7 10  1  0  0  0
 10 11  2  0  0  0
 11 12  1  0  0  0
 12 13  2  0  0  0
 13 14  1  0  0  0
 14 15  2  0  0  0
  7  8  1  0  0  0
  8  9  1  0  0  0
 28 23  1  0  0  0
 21 17  1  0  0  0
  9  4  1  0  0  0
 15 10  1  0  0  0
M  END
> <minimizedAffinity>
-6.73104

> <CNNscore>
0.3882332146

> <CNNaffinity>
6.2725572586

> <CNN_VS>
2.4352149963

> <CNNaffinity_variance>
0.3062984943

$$$$
[H]c1c([H])c([H])c(N2C([H])([H])C([H])([H])N(C(=O)C([H])([H])Sc3nnc([H])n3-c3c([H])c([H])c([H])c([H])c3C([H])([H])[H])C([H])([H])C2([H])[H])c([H])c1[H]


 28 31  0  0  0  0  0  0  0  0999 V2000
    4.7883  -50.9347  -22.6369 C   0  0  0  0  0  0  0  0  0  0  0  0
    4.6691  -51.9581  -23.6939 C   0  0  0  0  0  0  0  0  0  0  0  0
    5.4108  -52.9648  -23.6587 O   0  0  0  0  0  0  0  0  0  0  0  0
    3.7332  -51.8225  -24.7437 N   0  0  0  0  0  0  0  0  0  0  0  0
    2.8967  -50.6622  -24.7958 C   0  0  0  0  0  0  0  0  0  0  0  0
    1.9308  -50.6810  -25.9648 C   0  0  0  0  0  0  0  0  0  0  0  0
    1.3742  -51.9969  -26.1701 N   0  0  0  0  0  0  0  0  0  0  0  0
    2.1056  -53.2054  -25.7938 C   0  0  0  0  0  0  0  0  0  0  0  0
    3.5948  -52.8331  -25.7708 C   0  0  0  0  0  0  0  0  0  0  0  0
    0.1007  -52.1315  -26.7527 C   0  0  0  0  0  0  0  0  0  0  0  0
   -1.0337  -51.8844  -26.0217 C   0  0  0  0  0  0  0  0  0  0  0  0
   -2.2740  -52.0363  -26.6268 C   0  0  0  0  0  0  0  0  0  0  0  0
   -2.3986  -52.4285  -27.9436 C   0  0  0  0  0  0  0  0  0  0  0  0
   -1.2534  -52.6786  -28.6854 C   0  0  0  0  0  0  0  0  0  0  0  0
   -0.0245  -52.5285  -28.0867 C   0  0  0  0  0  0  0  0  0  0  0  0
    3.7958  -51.3585  -21.1743 S   0  0  0  0  0  0  0  0  0  0  0  0
    1.1193  -50.4712  -21.0971 N   0  0  0  0  0  0  0  0  0  0  0  0
    0.4349  -49.3359  -20.9300 C   0  0  0  0  0  0  0  0  0  0  0  0
    1.3317  -48.3578  -20.7438 N   0  0  0  0  0  0  0  0  0  0  0  0
    2.5255  -48.8761  -20.7954 N   0  0  0  0  0  0  0  0  0  0  0  0
    2.4220  -50.1924  -21.0147 C   0  0  0  0  0  0  0  0  0  0  0  0
    0.3192  -51.9183  -18.8356 C   0  0  0  0  0  0  0  0  0  0  0  0
    0.1557  -52.4710  -20.2118 C   0  0  0  0  0  0  0  0  0  0  0  0
   -0.3961  -53.7179  -20.4111 C   0  0  0  0  0  0  0  0  0  0  0  0
   -0.5372  -54.2080  -21.7050 C   0  0  0  0  0  0  0  0  0  0  0  0
   -0.1446  -53.4922  -22.8137 C   0  0  0  0  0  0  0  0  0  0  0  0
    0.4078  -52.2453  -22.6197 C   0  0  0  0  0  0  0  0  0  0  0  0
    0.5488  -51.7550  -21.3209 C   0  0  0  0  0  0  0  0  0  0  0  0
 22 23  1  0  0  0
 23 24  2  0  0  0
 24 25  1  0  0  0
 25 26  2  0  0  0
 26 27  1  0  0  0
 27 28  2  0  0  0
 28 17  1  0  0  0
 17 18  1  0  0  0
 18 19  2  0  0  0
 19 20  1  0  0  0
 20 21  2  0  0  0
 21 16  1  0  0  0
 16  1  1  0  0  0
  1  2  1  0  0  0
  2  3  2  0  0  0
  2  4  1  0  0  0
  4  5  1  0  0  0
  5  6  1  0  0  0
  6  7  1  0  0  0
  7 10  1  0  0  0
 10 11  2  0  0  0
 11 12  1  0  0  0
 12 13  2  0  0  0
 13 14  1  0  0  0
 14 15  2  0  0  0
  7  8  1  0  0  0
  8  9  1  0  0  0
 28 23  1  0  0  0
 21 17  1  0  0  0
  9  4  1  0  0  0
 15 10  1  0  0  0
M  END
> <minimizedAffinity>
-8.29124

> <CNNscore>
0.3807202280

> <CNNaffinity>
6.4080972672

> <CNN_VS>
2.4396922588

> <CNNaffinity_variance>
0.1843395531

$$$$
[H]c1c([H])c([H])c(N2C([H])([H])C([H])([H])N(C(=O)C([H])([H])Sc3nnc([H])n3-c3c([H])c([H])c([H])c([H])c3C([H])([H])[H])C([H])([H])C2([H])[H])c([H])c1[H]


 28 31  0  0  0  0  0  0  0  0999 V2000
    1.6062  -50.6627  -22.8746 C   0  0  0  0  0  0  0  0  0  0  0  0
    2.3953  -50.6603  -21.6272 C   0  0  0  0  0  0  0  0  0  0  0  0
    3.6193  -50.4070  -21.6768 O   0  0  0  0  0  0  0  0  0  0  0  0
    1.7944  -50.9377  -20.3788 N   0  0  0  0  0  0  0  0  0  0  0  0
    0.3978  -51.2461  -20.3226 C   0  0  0  0  0  0  0  0  0  0  0  0
   -0.0976  -51.4918  -18.9104 C   0  0  0  0  0  0  0  0  0  0  0  0
    0.4867  -50.5604  -17.9752 N   0  0  0  0  0  0  0  0  0  0  0  0
    1.8025  -49.9667  -18.2060 C   0  0  0  0  0  0  0  0  0  0  0  0
    2.5573  -50.9145  -19.1488 C   0  0  0  0  0  0  0  0  0  0  0  0
   -0.2153  -50.2145  -16.8060 C   0  0  0  0  0  0  0  0  0  0  0  0
   -0.0032  -49.0052  -16.1937 C   0  0  0  0  0  0  0  0  0  0  0  0
   -0.7070  -48.7013  -15.0361 C   0  0  0  0  0  0  0  0  0  0  0  0
   -1.6147  -49.5812  -14.4837 C   0  0  0  0  0  0  0  0  0  0  0  0
   -1.8315  -50.8044  -15.1009 C   0  0  0  0  0  0  0  0  0  0  0  0
   -1.1347  -51.1063  -16.2474 C   0  0  0  0  0  0  0  0  0  0  0  0
    1.8175  -52.2115  -23.8021 S   0  0  0  0  0  0  0  0  0  0  0  0
   -0.5225  -53.7310  -24.2171 N   0  0  0  0  0  0  0  0  0  0  0  0
   -1.3179  -54.5670  -23.5435 C   0  0  0  0  0  0  0  0  0  0  0  0
   -0.8077  -54.6905  -22.3106 N   0  0  0  0  0  0  0  0  0  0  0  0
    0.2641  -53.9546  -22.2311 N   0  0  0  0  0  0  0  0  0  0  0  0
    0.4648  -53.3454  -23.4059 C   0  0  0  0  0  0  0  0  0  0  0  0
    0.4568  -55.4538  -26.1973 C   0  0  0  0  0  0  0  0  0  0  0  0
   -0.2209  -54.1713  -26.5466 C   0  0  0  0  0  0  0  0  0  0  0  0
   -0.3846  -53.7943  -27.8619 C   0  0  0  0  0  0  0  0  0  0  0  0
   -1.0207  -52.5937  -28.1585 C   0  0  0  0  0  0  0  0  0  0  0  0
   -1.5024  -51.7512  -27.1819 C   0  0  0  0  0  0  0  0  0  0  0  0
   -1.3411  -52.1234  -25.8655 C   0  0  0  0  0  0  0  0  0  0  0  0
   -0.7025  -53.3283  -25.5695 C   0  0  0  0  0  0  0  0  0  0  0  0
 22 23  1  0  0  0
 23 24  2  0  0  0
 24 25  1  0  0  0
 25 26  2  0  0  0
 26 27  1  0  0  0
 27 28  2  0  0  0
 28 17  1  0  0  0
 17 18  1  0  0  0
 18 19  2  0  0  0
 19 20  1  0  0  0
 20 21  2  0  0  0
 21 16  1  0  0  0
 16  1  1  0  0  0
  1  2  1  0  0  0
  2  3  2  0  0  0
  2  4  1  0  0  0
  4  5  1  0  0  0
  5  6  1  0  0  0
  6  7  1  0  0  0
  7 10  1  0  0  0
 10 11  2  0  0  0
 11 12  1  0  0  0
 12 13  2  0  0  0
 13 14  1  0  0  0
 14 15  2  0  0  0
  7  8  1  0  0  0
  8  9  1  0  0  0
 28 23  1  0  0  0
 21 17  1  0  0  0
  9  4  1  0  0  0
 15 10  1  0  0  0
M  END
> <minimizedAffinity>
-6.63554

> <CNNscore>
0.3162729740

> <CNNaffinity>
6.2045688629

> <CNN_VS>
1.9623374939

> <CNNaffinity_variance>
0.4250660539

$$$$
[H]c1c([H])c([H])c(N2C([H])([H])C([H])([H])N(C(=O)C([H])([H])Sc3nnc([H])n3-c3c([H])c([H])c([H])c([H])c3C([H])([H])[H])C([H])([H])C2([H])[H])c([H])c1[H]


 28 31  0  0  0  0  0  0  0  0999 V2000
    0.3707  -50.6578  -21.1956 C   0  0  0  0  0  0  0  0  0  0  0  0
    0.9806  -50.0154  -20.0149 C   0  0  0  0  0  0  0  0  0  0  0  0
    1.8018  -49.0861  -20.1786 O   0  0  0  0  0  0  0  0  0  0  0  0
    0.6539  -50.4295  -18.7041 N   0  0  0  0  0  0  0  0  0  0  0  0
   -0.2714  -51.5051  -18.5155 C   0  0  0  0  0  0  0  0  0  0  0  0
   -0.5356  -51.8089  -17.0533 C   0  0  0  0  0  0  0  0  0  0  0  0
   -0.6470  -50.5995  -16.2734 N   0  0  0  0  0  0  0  0  0  0  0  0
    0.0435  -49.3710  -16.6617 C   0  0  0  0  0  0  0  0  0  0  0  0
    1.2306  -49.7888  -17.5411 C   0  0  0  0  0  0  0  0  0  0  0  0
   -1.4306  -50.5939  -15.1048 C   0  0  0  0  0  0  0  0  0  0  0  0
   -1.2139  -51.5155  -14.1119 C   0  0  0  0  0  0  0  0  0  0  0  0
   -2.0127  -51.4860  -12.9766 C   0  0  0  0  0  0  0  0  0  0  0  0
   -3.0186  -50.5553  -12.8180 C   0  0  0  0  0  0  0  0  0  0  0  0
   -3.2396  -49.6220  -13.8201 C   0  0  0  0  0  0  0  0  0  0  0  0
   -2.4491  -49.6506  -14.9450 C   0  0  0  0  0  0  0  0  0  0  0  0
    1.3648  -52.0593  -21.7884 S   0  0  0  0  0  0  0  0  0  0  0  0
    0.2749  -53.5354  -23.9308 N   0  0  0  0  0  0  0  0  0  0  0  0
   -0.6617  -54.4636  -24.1461 C   0  0  0  0  0  0  0  0  0  0  0  0
   -1.2175  -54.7465  -22.9600 N   0  0  0  0  0  0  0  0  0  0  0  0
   -0.6411  -54.0159  -22.0486 N   0  0  0  0  0  0  0  0  0  0  0  0
    0.2933  -53.2516  -22.6268 C   0  0  0  0  0  0  0  0  0  0  0  0
   -0.9547  -51.8311  -25.7834 C   0  0  0  0  0  0  0  0  0  0  0  0
    0.5083  -52.1189  -25.8414 C   0  0  0  0  0  0  0  0  0  0  0  0
    1.3015  -51.5518  -26.8152 C   0  0  0  0  0  0  0  0  0  0  0  0
    2.6624  -51.8370  -26.8450 C   0  0  0  0  0  0  0  0  0  0  0  0
    3.2627  -52.6735  -25.9310 C   0  0  0  0  0  0  0  0  0  0  0  0
    2.4740  -53.2431  -24.9557 C   0  0  0  0  0  0  0  0  0  0  0  0
    1.1088  -52.9560  -24.9272 C   0  0  0  0  0  0  0  0  0  0  0  0
 22 23  1  0  0  0
 23 24  2  0  0  0
 24 25  1  0  0  0
 25 26  2  0  0  0
 26 27  1  0  0  0
 27 28  2  0  0  0
 28 17  1  0  0  0
 17 18  1  0  0  0
 18 19  2  0  0  0
 19 20  1  0  0  0
 20 21  2  0  0  0
 21 16  1  0  0  0
 16  1  1  0  0  0
  1  2  1  0  0  0
  2  3  2  0  0  0
  2  4  1  0  0  0
  4  5  1  0  0  0
  5  6  1  0  0  0
  6  7  1  0  0  0
  7 10  1  0  0  0
 10 11  2  0  0  0
 11 12  1  0  0  0
 12 13  2  0  0  0
 13 14  1  0  0  0
 14 15  2  0  0  0
  7  8  1  0  0  0
  8  9  1  0  0  0
 28 23  1  0  0  0
 21 17  1  0  0  0
  9  4  1  0  0  0
 15 10  1  0  0  0
M  END
> <minimizedAffinity>
-6.79236

> <CNNscore>
0.2801972926

> <CNNaffinity>
5.9779424667

> <CNN_VS>
1.6750032902

> <CNNaffinity_variance>
0.5161973238

$$$$
[H]c1c([H])c([H])c(N2C([H])([H])C([H])([H])N(C(=O)C([H])([H])Sc3nnc([H])n3-c3c([H])c([H])c([H])c([H])c3C([H])([H])[H])C([H])([H])C2([H])[H])c([H])c1[H]


 28 31  0  0  0  0  0  0  0  0999 V2000
    2.9946  -51.2332  -24.2772 C   0  0  0  0  0  0  0  0  0  0  0  0
    2.8847  -50.1459  -23.2849 C   0  0  0  0  0  0  0  0  0  0  0  0
    3.0295  -48.9602  -23.6564 O   0  0  0  0  0  0  0  0  0  0  0  0
    2.6183  -50.4189  -21.9244 N   0  0  0  0  0  0  0  0  0  0  0  0
    2.4708  -51.7761  -21.4944 C   0  0  0  0  0  0  0  0  0  0  0  0
    2.1618  -51.8977  -20.0146 C   0  0  0  0  0  0  0  0  0  0  0  0
    1.2268  -50.8857  -19.5844 N   0  0  0  0  0  0  0  0  0  0  0  0
    1.1370  -49.5903  -20.2560 C   0  0  0  0  0  0  0  0  0  0  0  0
    2.4863  -49.3565  -20.9501 C   0  0  0  0  0  0  0  0  0  0  0  0
    0.3818  -51.1387  -18.4884 C   0  0  0  0  0  0  0  0  0  0  0  0
    0.2544  -50.2217  -17.4758 C   0  0  0  0  0  0  0  0  0  0  0  0
   -0.5813  -50.5091  -16.4051 C   0  0  0  0  0  0  0  0  0  0  0  0
   -1.2887  -51.6913  -16.3304 C   0  0  0  0  0  0  0  0  0  0  0  0
   -1.1623  -52.6200  -17.3529 C   0  0  0  0  0  0  0  0  0  0  0  0
   -0.3345  -52.3362  -18.4137 C   0  0  0  0  0  0  0  0  0  0  0  0
    2.0392  -50.8719  -25.7806 S   0  0  0  0  0  0  0  0  0  0  0  0
    1.1389  -52.9138  -27.5060 N   0  0  0  0  0  0  0  0  0  0  0  0
    1.6429  -53.8877  -28.2695 C   0  0  0  0  0  0  0  0  0  0  0  0
    2.9764  -53.8347  -28.1481 N   0  0  0  0  0  0  0  0  0  0  0  0
    3.2794  -52.8615  -27.3372 N   0  0  0  0  0  0  0  0  0  0  0  0
    2.1524  -52.2707  -26.9222 C   0  0  0  0  0  0  0  0  0  0  0  0
   -0.4177  -52.8504  -29.8343 C   0  0  0  0  0  0  0  0  0  0  0  0
   -1.0126  -52.5833  -28.4923 C   0  0  0  0  0  0  0  0  0  0  0  0
   -2.3535  -52.2946  -28.3590 C   0  0  0  0  0  0  0  0  0  0  0  0
   -2.8814  -52.0505  -27.0957 C   0  0  0  0  0  0  0  0  0  0  0  0
   -2.1128  -52.0850  -25.9538 C   0  0  0  0  0  0  0  0  0  0  0  0
   -0.7719  -52.3729  -26.0819 C   0  0  0  0  0  0  0  0  0  0  0  0
   -0.2437  -52.6175  -27.3501 C   0  0  0  0  0  0  0  0  0  0  0  0
 22 23  1  0  0  0
 23 24  2  0  0  0
 24 25  1  0  0  0
 25 26  2  0  0  0
 26 27  1  0  0  0
 27 28  2  0  0  0
 28 17  1  0  0  0
 17 18  1  0  0  0
 18 19  2  0  0  0
 19 20  1  0  0  0
 20 21  2  0  0  0
 21 16  1  0  0  0
 16  1  1  0  0  0
  1  2  1  0  0  0
  2  3  2  0  0  0
  2  4  1  0  0  0
  4  5  1  0  0  0
  5  6  1  0  0  0
  6  7  1  0  0  0
  7 10  1  0  0  0
 10 11  2  0  0  0
 11 12  1  0  0  0
 12 13  2  0  0  0
 13 14  1  0  0  0
 14 15  2  0  0  0
  7  8  1  0  0  0
  8  9  1  0  0  0
 28 23  1  0  0  0
 21 17  1  0  0  0
  9  4  1  0  0  0
 15 10  1  0  0  0
M  END
> <minimizedAffinity>
-8.11908

> <CNNscore>
0.2769444883

> <CNNaffinity>
6.0514464378

> <CNN_VS>
1.6759147644

> <CNNaffinity_variance>
0.0773579404

$$$$
[H]OC(C([H])([H])[H])(C([H])([H])[H])C([H])([H])C([H])([H])N([H])S(=O)(=O)c1c([H])c([H])c(C([H])([H])[H])c(-c2c([H])nc(N([H])[H])c(-c3onc(C([H])([H])[H])c3[H])c2[H])c1[H]


 34 36  0  0  0  0  0  0  0  0999 V2000
    0.6145  -51.5965  -21.3452 C   0  0  0  0  0  0  0  0  0  0  0  0
    1.3655  -50.6030  -21.9847 C   0  0  0  0  0  0  0  0  0  0  0  0
    1.8472  -49.5055  -21.3029 C   0  0  0  0  0  0  0  0  0  0  0  0
    1.5983  -49.3590  -19.9623 C   0  0  0  0  0  0  0  0  0  0  0  0
    0.8620  -50.3229  -19.3092 C   0  0  0  0  0  0  0  0  0  0  0  0
    0.3724  -51.4420  -20.0093 C   0  0  0  0  0  0  0  0  0  0  0  0
   -0.4036  -52.4776  -19.2762 C   0  0  0  0  0  0  0  0  0  0  0  0
   -0.2759  -53.8692  -24.1593 C   0  0  0  0  0  0  0  0  0  0  0  0
    0.2424  -52.7689  -23.4611 C   0  0  0  0  0  0  0  0  0  0  0  0
    0.0999  -52.7400  -22.0900 C   0  0  0  0  0  0  0  0  0  0  0  0
   -0.5454  -53.7940  -21.4730 C   0  0  0  0  0  0  0  0  0  0  0  0
   -1.0343  -54.8365  -22.1533 N   0  0  0  0  0  0  0  0  0  0  0  0
   -0.9012  -54.8801  -23.5097 C   0  0  0  0  0  0  0  0  0  0  0  0
   -1.4321  -55.9995  -24.1872 N   0  0  0  0  0  0  0  0  0  0  0  0
   -2.4150  -56.0457  -24.5426 H   0  0  0  0  0  0  0  0  0  0  0  0
   -0.8430  -56.8329  -24.3560 H   0  0  0  0  0  0  0  0  0  0  0  0
   -0.3528  -52.7190  -29.1012 C   0  0  0  0  0  0  0  0  0  0  0  0
   -0.1006  -53.3702  -27.7803 C   0  0  0  0  0  0  0  0  0  0  0  0
   -0.5664  -52.9425  -26.5221 C   0  0  0  0  0  0  0  0  0  0  0  0
   -0.0908  -53.8385  -25.6165 C   0  0  0  0  0  0  0  0  0  0  0  0
    0.6141  -54.7460  -26.2790 O   0  0  0  0  0  0  0  0  0  0  0  0
    0.6069  -54.4740  -27.5247 N   0  0  0  0  0  0  0  0  0  0  0  0
    2.7876  -48.2880  -22.1671 S   0  0  0  0  0  0  0  0  0  0  0  0
    1.8867  -47.0877  -22.3462 O   0  0  0  0  0  0  0  0  0  0  0  0
    4.0020  -47.9528  -21.3759 O   0  0  0  0  0  0  0  0  0  0  0  0
    3.1395  -48.9083  -23.7150 N   0  0  0  0  0  0  0  0  0  0  0  0
    3.0403  -48.1035  -24.4010 H   0  0  0  0  0  0  0  0  0  0  0  0
    4.4736  -49.4660  -23.8049 C   0  0  0  0  0  0  0  0  0  0  0  0
    4.5919  -50.5043  -24.8728 C   0  0  0  0  0  0  0  0  0  0  0  0
    4.7427  -51.8911  -24.3432 C   0  0  0  0  0  0  0  0  0  0  0  0
    4.7843  -51.9980  -22.8531 C   0  0  0  0  0  0  0  0  0  0  0  0
    3.6062  -52.7394  -24.8597 C   0  0  0  0  0  0  0  0  0  0  0  0
    5.9217  -52.4459  -24.8449 O   0  0  0  0  0  0  0  0  0  0  0  0
    5.8234  -53.3982  -25.0457 H   0  0  0  0  0  0  0  0  0  0  0  0
 17 18  1  0  0  0
 18 19  1  0  0  0
 19 20  2  0  0  0
 20  8  1  0  0  0
  8  9  2  0  0  0
  9 10  1  0  0  0
 10  1  1  0  0  0
  1  2  2  0  0  0
  2  3  1  0  0  0
  3 23  1  0  0  0
 23 24  2  0  0  0
 23 25  2  0  0  0
 23 26  1  0  0  0
 26 28  1  0  0  0
 28 29  1  0  0  0
 29 30  1  0  0  0
 30 31  1  0  0  0
 30 32  1  0  0  0
 30 33  1  0  0  0
  3  4  2  0  0  0
  4  5  1  0  0  0
  5  6  2  0  0  0
  6  7  1  0  0  0
 10 11  2  0  0  0
 11 12  1  0  0  0
 12 13  2  0  0  0
 13 14  1  0  0  0
 20 21  1  0  0  0
 21 22  1  0  0  0
 22 18  2  0  0  0
 13  8  1  0  0  0
  6  1  1  0  0  0
 26 27  1  0  0  0
 33 34  1  0  0  0
 14 15  1  0  0  0
 14 16  1  0  0  0
M  END
> <minimizedAffinity>
-9.19749

> <CNNscore>
0.9702318907

> <CNNaffinity>
7.5426321030

> <CNN_VS>
7.3181023598

> <CNNaffinity_variance>
0.0989696011

$$$$
[H]OC(C([H])([H])[H])(C([H])([H])[H])C([H])([H])C([H])([H])N([H])S(=O)(=O)c1c([H])c([H])c(C([H])([H])[H])c(-c2c([H])nc(N([H])[H])c(-c3onc(C([H])([H])[H])c3[H])c2[H])c1[H]


 34 36  0  0  0  0  0  0  0  0999 V2000
    0.3722  -51.7404  -20.6255 C   0  0  0  0  0  0  0  0  0  0  0  0
    1.1392  -50.6787  -21.1198 C   0  0  0  0  0  0  0  0  0  0  0  0
    1.5911  -49.6663  -20.2999 C   0  0  0  0  0  0  0  0  0  0  0  0
    1.2954  -49.6757  -18.9608 C   0  0  0  0  0  0  0  0  0  0  0  0
    0.5424  -50.7096  -18.4490 C   0  0  0  0  0  0  0  0  0  0  0  0
    0.0834  -51.7412  -19.2900 C   0  0  0  0  0  0  0  0  0  0  0  0
   -0.7116  -52.8557  -18.7085 C   0  0  0  0  0  0  0  0  0  0  0  0
   -0.3184  -53.7248  -23.7016 C   0  0  0  0  0  0  0  0  0  0  0  0
    0.1706  -52.7134  -22.8622 C   0  0  0  0  0  0  0  0  0  0  0  0
   -0.1101  -52.7912  -21.5145 C   0  0  0  0  0  0  0  0  0  0  0  0
   -0.8580  -53.8593  -21.0586 C   0  0  0  0  0  0  0  0  0  0  0  0
   -1.3171  -54.8162  -21.8722 N   0  0  0  0  0  0  0  0  0  0  0  0
   -1.0479  -54.7538  -23.2076 C   0  0  0  0  0  0  0  0  0  0  0  0
   -1.5524  -55.7854  -24.0293 N   0  0  0  0  0  0  0  0  0  0  0  0
   -2.4947  -55.7530  -24.4824 H   0  0  0  0  0  0  0  0  0  0  0  0
   -0.9839  -56.6301  -24.2116 H   0  0  0  0  0  0  0  0  0  0  0  0
   -0.2708  -52.6136  -28.6528 C   0  0  0  0  0  0  0  0  0  0  0  0
    0.0735  -53.1174  -27.2889 C   0  0  0  0  0  0  0  0  0  0  0  0
   -0.6867  -52.9669  -26.1132 C   0  0  0  0  0  0  0  0  0  0  0  0
    0.0159  -53.5827  -25.1251 C   0  0  0  0  0  0  0  0  0  0  0  0
    1.1247  -54.0723  -25.6639 O   0  0  0  0  0  0  0  0  0  0  0  0
    1.1554  -53.8029  -26.9099 N   0  0  0  0  0  0  0  0  0  0  0  0
    2.5540  -48.3558  -20.9848 S   0  0  0  0  0  0  0  0  0  0  0  0
    1.7572  -47.7850  -22.1354 O   0  0  0  0  0  0  0  0  0  0  0  0
    2.8129  -47.3355  -19.9336 O   0  0  0  0  0  0  0  0  0  0  0  0
    3.9765  -49.0400  -21.6275 N   0  0  0  0  0  0  0  0  0  0  0  0
    4.1056  -49.9840  -21.1579 H   0  0  0  0  0  0  0  0  0  0  0  0
    3.9151  -49.2129  -23.0646 C   0  0  0  0  0  0  0  0  0  0  0  0
    4.7894  -48.2482  -23.7976 C   0  0  0  0  0  0  0  0  0  0  0  0
    4.1014  -47.5588  -24.9280 C   0  0  0  0  0  0  0  0  0  0  0  0
    5.0049  -46.8240  -25.8645 C   0  0  0  0  0  0  0  0  0  0  0  0
    3.3103  -48.5760  -25.7140 C   0  0  0  0  0  0  0  0  0  0  0  0
    3.1825  -46.6424  -24.4128 O   0  0  0  0  0  0  0  0  0  0  0  0
    2.3665  -46.5984  -24.9504 H   0  0  0  0  0  0  0  0  0  0  0  0
 17 18  1  0  0  0
 18 19  1  0  0  0
 19 20  2  0  0  0
 20  8  1  0  0  0
  8  9  2  0  0  0
  9 10  1  0  0  0
 10  1  1  0  0  0
  1  2  2  0  0  0
  2  3  1  0  0  0
  3 23  1  0  0  0
 23 24  2  0  0  0
 23 25  2  0  0  0
 23 26  1  0  0  0
 26 28  1  0  0  0
 28 29  1  0  0  0
 29 30  1  0  0  0
 30 31  1  0  0  0
 30 32  1  0  0  0
 30 33  1  0  0  0
  3  4  2  0  0  0
  4  5  1  0  0  0
  5  6  2  0  0  0
  6  7  1  0  0  0
 10 11  2  0  0  0
 11 12  1  0  0  0
 12 13  2  0  0  0
 13 14  1  0  0  0
 20 21  1  0  0  0
 21 22  1  0  0  0
 22 18  2  0  0  0
 13  8  1  0  0  0
  6  1  1  0  0  0
 26 27  1  0  0  0
 33 34  1  0  0  0
 14 15  1  0  0  0
 14 16  1  0  0  0
M  END
> <minimizedAffinity>
-8.27686

> <CNNscore>
0.9572988153

> <CNNaffinity>
7.4191322327

> <CNN_VS>
7.1023263931

> <CNNaffinity_variance>
0.0312879495

$$$$
[H]OC(C([H])([H])[H])(C([H])([H])[H])C([H])([H])C([H])([H])N([H])S(=O)(=O)c1c([H])c([H])c(C([H])([H])[H])c(-c2c([H])nc(N([H])[H])c(-c3onc(C([H])([H])[H])c3[H])c2[H])c1[H]


 34 36  0  0  0  0  0  0  0  0999 V2000
    0.4390  -51.7619  -21.2903 C   0  0  0  0  0  0  0  0  0  0  0  0
    0.2667  -51.7293  -19.9014 C   0  0  0  0  0  0  0  0  0  0  0  0
    0.7241  -50.6762  -19.1378 C   0  0  0  0  0  0  0  0  0  0  0  0
    1.3682  -49.6201  -19.7297 C   0  0  0  0  0  0  0  0  0  0  0  0
    1.5503  -49.6275  -21.0953 C   0  0  0  0  0  0  0  0  0  0  0  0
    1.0813  -50.7048  -21.8709 C   0  0  0  0  0  0  0  0  0  0  0  0
    1.2739  -50.6790  -23.3455 C   0  0  0  0  0  0  0  0  0  0  0  0
   -0.3424  -53.9774  -24.1814 C   0  0  0  0  0  0  0  0  0  0  0  0
    0.1397  -52.8867  -23.4433 C   0  0  0  0  0  0  0  0  0  0  0  0
   -0.0374  -52.8946  -22.0760 C   0  0  0  0  0  0  0  0  0  0  0  0
   -0.6800  -53.9741  -21.5018 C   0  0  0  0  0  0  0  0  0  0  0  0
   -1.1340  -55.0071  -22.2197 N   0  0  0  0  0  0  0  0  0  0  0  0
   -0.9665  -55.0144  -23.5730 C   0  0  0  0  0  0  0  0  0  0  0  0
   -1.4613  -56.1249  -24.2912 N   0  0  0  0  0  0  0  0  0  0  0  0
   -2.4341  -56.1781  -24.6725 H   0  0  0  0  0  0  0  0  0  0  0  0
   -0.8542  -56.9440  -24.4656 H   0  0  0  0  0  0  0  0  0  0  0  0
   -0.3200  -52.7079  -29.0946 C   0  0  0  0  0  0  0  0  0  0  0  0
   -0.0872  -53.3860  -27.7837 C   0  0  0  0  0  0  0  0  0  0  0  0
   -0.5933  -52.9991  -26.5279 C   0  0  0  0  0  0  0  0  0  0  0  0
   -0.1216  -53.9071  -25.6322 C   0  0  0  0  0  0  0  0  0  0  0  0
    0.6189  -54.7832  -26.2981 O   0  0  0  0  0  0  0  0  0  0  0  0
    0.6371  -54.4809  -27.5368 N   0  0  0  0  0  0  0  0  0  0  0  0
    0.4754  -50.6951  -17.3910 S   0  0  0  0  0  0  0  0  0  0  0  0
    1.8353  -50.8859  -16.7593 O   0  0  0  0  0  0  0  0  0  0  0  0
   -0.1531  -49.4140  -16.9705 O   0  0  0  0  0  0  0  0  0  0  0  0
   -0.4672  -52.0649  -17.0172 N   0  0  0  0  0  0  0  0  0  0  0  0
    0.1802  -52.7701  -16.5569 H   0  0  0  0  0  0  0  0  0  0  0  0
   -1.5699  -51.7604  -16.1282 C   0  0  0  0  0  0  0  0  0  0  0  0
   -2.8417  -52.4275  -16.5405 C   0  0  0  0  0  0  0  0  0  0  0  0
   -3.9246  -52.3319  -15.5185 C   0  0  0  0  0  0  0  0  0  0  0  0
   -4.6333  -51.0172  -15.4691 C   0  0  0  0  0  0  0  0  0  0  0  0
   -4.9379  -53.4209  -15.7746 C   0  0  0  0  0  0  0  0  0  0  0  0
   -3.3824  -52.5734  -14.2546 O   0  0  0  0  0  0  0  0  0  0  0  0
   -3.9945  -53.0780  -13.6824 H   0  0  0  0  0  0  0  0  0  0  0  0
 17 18  1  0  0  0
 18 19  1  0  0  0
 19 20  2  0  0  0
 20  8  1  0  0  0
  8  9  2  0  0  0
  9 10  1  0  0  0
 10  1  1  0  0  0
  1  2  2  0  0  0
  2  3  1  0  0  0
  3 23  1  0  0  0
 23 24  2  0  0  0
 23 25  2  0  0  0
 23 26  1  0  0  0
 26 28  1  0  0  0
 28 29  1  0  0  0
 29 30  1  0  0  0
 30 31  1  0  0  0
 30 32  1  0  0  0
 30 33  1  0  0  0
  3  4  2  0  0  0
  4  5  1  0  0  0
  5  6  2  0  0  0
  6  7  1  0  0  0
 10 11  2  0  0  0
 11 12  1  0  0  0
 12 13  2  0  0  0
 13 14  1  0  0  0
 20 21  1  0  0  0
 21 22  1  0  0  0
 22 18  2  0  0  0
 13  8  1  0  0  0
  6  1  1  0  0  0
 26 27  1  0  0  0
 33 34  1  0  0  0
 14 15  1  0  0  0
 14 16  1  0  0  0
M  END
> <minimizedAffinity>
-9.63460

> <CNNscore>
0.9568328261

> <CNNaffinity>
7.2778024673

> <CNN_VS>
6.9636402130

> <CNNaffinity_variance>
0.0640654787

$$$$
[H]OC(C([H])([H])[H])(C([H])([H])[H])C([H])([H])C([H])([H])N([H])S(=O)(=O)c1c([H])c([H])c(C([H])([H])[H])c(-c2c([H])nc(N([H])[H])c(-c3onc(C([H])([H])[H])c3[H])c2[H])c1[H]


 34 36  0  0  0  0  0  0  0  0999 V2000
    0.9677  -51.9492  -21.1450 C   0  0  0  0  0  0  0  0  0  0  0  0
    2.0174  -51.1937  -21.6809 C   0  0  0  0  0  0  0  0  0  0  0  0
    2.6424  -50.2020  -20.9547 C   0  0  0  0  0  0  0  0  0  0  0  0
    2.2445  -49.9282  -19.6713 C   0  0  0  0  0  0  0  0  0  0  0  0
    1.2139  -50.6577  -19.1201 C   0  0  0  0  0  0  0  0  0  0  0  0
    0.5789  -51.6695  -19.8653 C   0  0  0  0  0  0  0  0  0  0  0  0
   -0.5184  -52.4550  -19.2399 C   0  0  0  0  0  0  0  0  0  0  0  0
   -0.2322  -53.9417  -24.0549 C   0  0  0  0  0  0  0  0  0  0  0  0
    0.4240  -52.9501  -23.3112 C   0  0  0  0  0  0  0  0  0  0  0  0
    0.3094  -52.9815  -21.9376 C   0  0  0  0  0  0  0  0  0  0  0  0
   -0.4451  -53.9858  -21.3628 C   0  0  0  0  0  0  0  0  0  0  0  0
   -1.0649  -54.9245  -22.0862 N   0  0  0  0  0  0  0  0  0  0  0  0
   -0.9611  -54.9075  -23.4457 C   0  0  0  0  0  0  0  0  0  0  0  0
   -1.6317  -55.9177  -24.1694 N   0  0  0  0  0  0  0  0  0  0  0  0
   -2.6190  -55.8289  -24.5036 H   0  0  0  0  0  0  0  0  0  0  0  0
   -1.1478  -56.8033  -24.3964 H   0  0  0  0  0  0  0  0  0  0  0  0
   -0.5154  -52.6902  -28.9646 C   0  0  0  0  0  0  0  0  0  0  0  0
   -0.1655  -53.3354  -27.6631 C   0  0  0  0  0  0  0  0  0  0  0  0
   -0.6680  -53.0028  -26.3904 C   0  0  0  0  0  0  0  0  0  0  0  0
   -0.0697  -53.8515  -25.5123 C   0  0  0  0  0  0  0  0  0  0  0  0
    0.7391  -54.6431  -26.2039 O   0  0  0  0  0  0  0  0  0  0  0  0
    0.6821  -54.3439  -27.4422 N   0  0  0  0  0  0  0  0  0  0  0  0
    3.9598  -49.2852  -21.6879 S   0  0  0  0  0  0  0  0  0  0  0  0
    3.9563  -47.9211  -21.0370 O   0  0  0  0  0  0  0  0  0  0  0  0
    5.2433  -50.0019  -21.4596 O   0  0  0  0  0  0  0  0  0  0  0  0
    3.5879  -49.0740  -23.3377 N   0  0  0  0  0  0  0  0  0  0  0  0
    3.7231  -48.0434  -23.5561 H   0  0  0  0  0  0  0  0  0  0  0  0
    4.4271  -49.8726  -24.2077 C   0  0  0  0  0  0  0  0  0  0  0  0
    4.0061  -49.7983  -25.6393 C   0  0  0  0  0  0  0  0  0  0  0  0
    3.1573  -50.9465  -26.0724 C   0  0  0  0  0  0  0  0  0  0  0  0
    3.4727  -52.2501  -25.4134 C   0  0  0  0  0  0  0  0  0  0  0  0
    1.7087  -50.6098  -25.8150 C   0  0  0  0  0  0  0  0  0  0  0  0
    3.2930  -51.1203  -27.4512 O   0  0  0  0  0  0  0  0  0  0  0  0
    2.4506  -51.3829  -27.8732 H   0  0  0  0  0  0  0  0  0  0  0  0
 17 18  1  0  0  0
 18 19  1  0  0  0
 19 20  2  0  0  0
 20  8  1  0  0  0
  8  9  2  0  0  0
  9 10  1  0  0  0
 10  1  1  0  0  0
  1  2  2  0  0  0
  2  3  1  0  0  0
  3 23  1  0  0  0
 23 24  2  0  0  0
 23 25  2  0  0  0
 23 26  1  0  0  0
 26 28  1  0  0  0
 28 29  1  0  0  0
 29 30  1  0  0  0
 30 31  1  0  0  0
 30 32  1  0  0  0
 30 33  1  0  0  0
  3  4  2  0  0  0
  4  5  1  0  0  0
  5  6  2  0  0  0
  6  7  1  0  0  0
 10 11  2  0  0  0
 11 12  1  0  0  0
 12 13  2  0  0  0
 13 14  1  0  0  0
 20 21  1  0  0  0
 21 22  1  0  0  0
 22 18  2  0  0  0
 13  8  1  0  0  0
  6  1  1  0  0  0
 26 27  1  0  0  0
 33 34  1  0  0  0
 14 15  1  0  0  0
 14 16  1  0  0  0
M  END
> <minimizedAffinity>
-8.54157

> <CNNscore>
0.9510288835

> <CNNaffinity>
7.4930129051

> <CNN_VS>
7.1260719299

> <CNNaffinity_variance>
0.0892083570

$$$$
[H]OC(C([H])([H])[H])(C([H])([H])[H])C([H])([H])C([H])([H])N([H])S(=O)(=O)c1c([H])c([H])c(C([H])([H])[H])c(-c2c([H])nc(N([H])[H])c(-c3onc(C([H])([H])[H])c3[H])c2[H])c1[H]


 34 36  0  0  0  0  0  0  0  0999 V2000
    0.3049  -51.8681  -20.7701 C   0  0  0  0  0  0  0  0  0  0  0  0
    1.0987  -50.8080  -21.2237 C   0  0  0  0  0  0  0  0  0  0  0  0
    1.5071  -49.7951  -20.3818 C   0  0  0  0  0  0  0  0  0  0  0  0
    1.1399  -49.8025  -19.0606 C   0  0  0  0  0  0  0  0  0  0  0  0
    0.3591  -50.8349  -18.5888 C   0  0  0  0  0  0  0  0  0  0  0  0
   -0.0552  -51.8670  -19.4520 C   0  0  0  0  0  0  0  0  0  0  0  0
   -0.8818  -52.9799  -18.9128 C   0  0  0  0  0  0  0  0  0  0  0  0
   -0.6413  -53.6702  -23.8901 C   0  0  0  0  0  0  0  0  0  0  0  0
   -0.2029  -52.6505  -23.0329 C   0  0  0  0  0  0  0  0  0  0  0  0
   -0.1302  -52.9195  -21.6825 C   0  0  0  0  0  0  0  0  0  0  0  0
   -0.4923  -54.1775  -21.2416 C   0  0  0  0  0  0  0  0  0  0  0  0
   -0.9084  -55.1395  -22.0722 N   0  0  0  0  0  0  0  0  0  0  0  0
   -0.9856  -54.8894  -23.4105 C   0  0  0  0  0  0  0  0  0  0  0  0
   -1.4299  -55.9339  -24.2504 N   0  0  0  0  0  0  0  0  0  0  0  0
   -2.4361  -56.0955  -24.4866 H   0  0  0  0  0  0  0  0  0  0  0  0
   -0.7487  -56.5900  -24.6692 H   0  0  0  0  0  0  0  0  0  0  0  0
    0.3450  -52.9400  -28.8141 C   0  0  0  0  0  0  0  0  0  0  0  0
   -0.3034  -52.9837  -27.4686 C   0  0  0  0  0  0  0  0  0  0  0  0
    0.2518  -53.4872  -26.2765 C   0  0  0  0  0  0  0  0  0  0  0  0
   -0.6956  -53.3189  -25.3157 C   0  0  0  0  0  0  0  0  0  0  0  0
   -1.7515  -52.7531  -25.8852 O   0  0  0  0  0  0  0  0  0  0  0  0
   -1.5230  -52.5611  -27.1249 N   0  0  0  0  0  0  0  0  0  0  0  0
    2.5070  -48.4866  -21.0155 S   0  0  0  0  0  0  0  0  0  0  0  0
    3.9084  -49.0362  -21.1524 O   0  0  0  0  0  0  0  0  0  0  0  0
    1.9595  -48.0401  -22.3247 O   0  0  0  0  0  0  0  0  0  0  0  0
    2.5466  -47.2508  -19.8426 N   0  0  0  0  0  0  0  0  0  0  0  0
    1.7394  -47.4306  -19.1760 H   0  0  0  0  0  0  0  0  0  0  0  0
    3.7928  -47.2188  -19.1044 C   0  0  0  0  0  0  0  0  0  0  0  0
    3.6032  -46.8354  -17.6728 C   0  0  0  0  0  0  0  0  0  0  0  0
    3.7100  -47.9851  -16.7276 C   0  0  0  0  0  0  0  0  0  0  0  0
    2.4663  -48.2869  -15.9560 C   0  0  0  0  0  0  0  0  0  0  0  0
    4.1145  -49.2179  -17.4988 C   0  0  0  0  0  0  0  0  0  0  0  0
    4.7310  -47.7289  -15.8103 O   0  0  0  0  0  0  0  0  0  0  0  0
    5.2311  -48.5378  -15.5817 H   0  0  0  0  0  0  0  0  0  0  0  0
 17 18  1  0  0  0
 18 19  1  0  0  0
 19 20  2  0  0  0
 20  8  1  0  0  0
  8  9  2  0  0  0
  9 10  1  0  0  0
 10  1  1  0  0  0
  1  2  2  0  0  0
  2  3  1  0  0  0
  3 23  1  0  0  0
 23 24  2  0  0  0
 23 25  2  0  0  0
 23 26  1  0  0  0
 26 28  1  0  0  0
 28 29  1  0  0  0
 29 30  1  0  0  0
 30 31  1  0  0  0
 30 32  1  0  0  0
 30 33  1  0  0  0
  3  4  2  0  0  0
  4  5  1  0  0  0
  5  6  2  0  0  0
  6  7  1  0  0  0
 10 11  2  0  0  0
 11 12  1  0  0  0
 12 13  2  0  0  0
 13 14  1  0  0  0
 20 21  1  0  0  0
 21 22  1  0  0  0
 22 18  2  0  0  0
 13  8  1  0  0  0
  6  1  1  0  0  0
 26 27  1  0  0  0
 33 34  1  0  0  0
 14 15  1  0  0  0
 14 16  1  0  0  0
M  END
> <minimizedAffinity>
-7.90575

> <CNNscore>
0.9174168110

> <CNNaffinity>
7.1282286644

> <CNN_VS>
6.5395569801

> <CNNaffinity_variance>
0.1290346533

$$$$
[H]OC(C([H])([H])[H])(C([H])([H])[H])C([H])([H])C([H])([H])N([H])S(=O)(=O)c1c([H])c([H])c(C([H])([H])[H])c(-c2c([H])nc(N([H])[H])c(-c3onc(C([H])([H])[H])c3[H])c2[H])c1[H]


 34 36  0  0  0  0  0  0  0  0999 V2000
    0.2142  -52.2935  -19.9609 C   0  0  0  0  0  0  0  0  0  0  0  0
    1.2863  -51.4115  -19.7802 C   0  0  0  0  0  0  0  0  0  0  0  0
    1.5041  -50.7704  -18.5790 C   0  0  0  0  0  0  0  0  0  0  0  0
    0.6633  -50.9848  -17.5171 C   0  0  0  0  0  0  0  0  0  0  0  0
   -0.3992  -51.8486  -17.6687 C   0  0  0  0  0  0  0  0  0  0  0  0
   -0.6175  -52.5012  -18.8969 C   0  0  0  0  0  0  0  0  0  0  0  0
   -1.7609  -53.4435  -19.0281 C   0  0  0  0  0  0  0  0  0  0  0  0
    0.5167  -53.2038  -23.5605 C   0  0  0  0  0  0  0  0  0  0  0  0
    0.7589  -52.5756  -22.3303 C   0  0  0  0  0  0  0  0  0  0  0  0
   -0.0072  -52.9471  -21.2458 C   0  0  0  0  0  0  0  0  0  0  0  0
   -0.9739  -53.9176  -21.4243 C   0  0  0  0  0  0  0  0  0  0  0  0
   -1.1925  -54.5075  -22.6045 N   0  0  0  0  0  0  0  0  0  0  0  0
   -0.4431  -54.1514  -23.6866 C   0  0  0  0  0  0  0  0  0  0  0  0
   -0.7081  -54.8001  -24.9126 N   0  0  0  0  0  0  0  0  0  0  0  0
   -1.4073  -54.4532  -25.6092 H   0  0  0  0  0  0  0  0  0  0  0  0
   -0.2003  -55.6656  -25.1634 H   0  0  0  0  0  0  0  0  0  0  0  0
    3.1938  -50.5292  -26.9415 C   0  0  0  0  0  0  0  0  0  0  0  0
    2.5461  -51.6316  -26.1684 C   0  0  0  0  0  0  0  0  0  0  0  0
    1.7224  -51.5005  -25.0338 C   0  0  0  0  0  0  0  0  0  0  0  0
    1.3669  -52.7629  -24.6746 C   0  0  0  0  0  0  0  0  0  0  0  0
    1.9352  -53.6010  -25.5313 O   0  0  0  0  0  0  0  0  0  0  0  0
    2.6136  -52.9471  -26.3904 N   0  0  0  0  0  0  0  0  0  0  0  0
    2.8739  -49.6701  -18.4156 S   0  0  0  0  0  0  0  0  0  0  0  0
    3.5257  -49.5807  -19.7763 O   0  0  0  0  0  0  0  0  0  0  0  0
    2.3858  -48.3442  -17.9498 O   0  0  0  0  0  0  0  0  0  0  0  0
    3.9924  -50.3906  -17.3506 N   0  0  0  0  0  0  0  0  0  0  0  0
    4.8750  -49.8006  -17.3828 H   0  0  0  0  0  0  0  0  0  0  0  0
    3.5024  -50.4638  -15.9891 C   0  0  0  0  0  0  0  0  0  0  0  0
    3.9367  -51.7097  -15.2881 C   0  0  0  0  0  0  0  0  0  0  0  0
    3.2927  -51.9005  -13.9557 C   0  0  0  0  0  0  0  0  0  0  0  0
    3.6462  -50.8731  -12.9295 C   0  0  0  0  0  0  0  0  0  0  0  0
    1.7939  -51.9145  -14.1330 C   0  0  0  0  0  0  0  0  0  0  0  0
    3.6516  -53.1515  -13.4498 O   0  0  0  0  0  0  0  0  0  0  0  0
    2.9157  -53.5773  -12.9663 H   0  0  0  0  0  0  0  0  0  0  0  0
 17 18  1  0  0  0
 18 19  1  0  0  0
 19 20  2  0  0  0
 20  8  1  0  0  0
  8  9  2  0  0  0
  9 10  1  0  0  0
 10  1  1  0  0  0
  1  2  2  0  0  0
  2  3  1  0  0  0
  3 23  1  0  0  0
 23 24  2  0  0  0
 23 25  2  0  0  0
 23 26  1  0  0  0
 26 28  1  0  0  0
 28 29  1  0  0  0
 29 30  1  0  0  0
 30 31  1  0  0  0
 30 32  1  0  0  0
 30 33  1  0  0  0
  3  4  2  0  0  0
  4  5  1  0  0  0
  5  6  2  0  0  0
  6  7  1  0  0  0
 10 11  2  0  0  0
 11 12  1  0  0  0
 12 13  2  0  0  0
 13 14  1  0  0  0
 20 21  1  0  0  0
 21 22  1  0  0  0
 22 18  2  0  0  0
 13  8  1  0  0  0
  6  1  1  0  0  0
 26 27  1  0  0  0
 33 34  1  0  0  0
 14 15  1  0  0  0
 14 16  1  0  0  0
M  END
> <minimizedAffinity>
-7.43416

> <CNNscore>
0.4911959767

> <CNNaffinity>
6.6362748146

> <CNN_VS>
3.2597115040

> <CNNaffinity_variance>
0.1272950768

$$$$
[H]OC(C([H])([H])[H])(C([H])([H])[H])C([H])([H])C([H])([H])N([H])S(=O)(=O)c1c([H])c([H])c(C([H])([H])[H])c(-c2c([H])nc(N([H])[H])c(-c3onc(C([H])([H])[H])c3[H])c2[H])c1[H]


 34 36  0  0  0  0  0  0  0  0999 V2000
    1.3214  -51.7920  -21.6247 C   0  0  0  0  0  0  0  0  0  0  0  0
    2.6251  -51.4330  -21.9873 C   0  0  0  0  0  0  0  0  0  0  0  0
    3.3055  -50.4221  -21.3420 C   0  0  0  0  0  0  0  0  0  0  0  0
    2.7126  -49.7343  -20.3144 C   0  0  0  0  0  0  0  0  0  0  0  0
    1.4302  -50.0684  -19.9378 C   0  0  0  0  0  0  0  0  0  0  0  0
    0.7394  -51.1015  -20.5994 C   0  0  0  0  0  0  0  0  0  0  0  0
   -0.6371  -51.4550  -20.1604 C   0  0  0  0  0  0  0  0  0  0  0  0
   -0.1216  -53.8538  -24.3715 C   0  0  0  0  0  0  0  0  0  0  0  0
    0.5796  -52.8343  -23.7113 C   0  0  0  0  0  0  0  0  0  0  0  0
    0.6141  -52.8528  -22.3330 C   0  0  0  0  0  0  0  0  0  0  0  0
   -0.0427  -53.8724  -21.6718 C   0  0  0  0  0  0  0  0  0  0  0  0
   -0.7072  -54.8377  -22.3162 N   0  0  0  0  0  0  0  0  0  0  0  0
   -0.7505  -54.8337  -23.6791 C   0  0  0  0  0  0  0  0  0  0  0  0
   -1.4633  -55.8719  -24.3178 N   0  0  0  0  0  0  0  0  0  0  0  0
   -2.4830  -55.8167  -24.5444 H   0  0  0  0  0  0  0  0  0  0  0  0
   -0.9793  -56.7453  -24.5880 H   0  0  0  0  0  0  0  0  0  0  0  0
   -0.7956  -52.5355  -29.2253 C   0  0  0  0  0  0  0  0  0  0  0  0
   -0.3914  -53.2343  -27.9679 C   0  0  0  0  0  0  0  0  0  0  0  0
   -0.6892  -52.8438  -26.6482 C   0  0  0  0  0  0  0  0  0  0  0  0
   -0.1193  -53.7760  -25.8386 C   0  0  0  0  0  0  0  0  0  0  0  0
    0.4821  -54.6692  -26.6130 O   0  0  0  0  0  0  0  0  0  0  0  0
    0.3239  -54.3550  -27.8386 N   0  0  0  0  0  0  0  0  0  0  0  0
    4.9472  -50.0176  -21.8469 S   0  0  0  0  0  0  0  0  0  0  0  0
    5.4909  -51.2277  -22.5713 O   0  0  0  0  0  0  0  0  0  0  0  0
    4.9089  -48.8191  -22.7274 O   0  0  0  0  0  0  0  0  0  0  0  0
    5.8811  -49.7925  -20.4392 N   0  0  0  0  0  0  0  0  0  0  0  0
    6.5093  -50.6438  -20.3450 H   0  0  0  0  0  0  0  0  0  0  0  0
    6.6894  -48.5912  -20.4895 C   0  0  0  0  0  0  0  0  0  0  0  0
    6.6456  -47.8151  -19.2135 C   0  0  0  0  0  0  0  0  0  0  0  0
    5.5094  -46.8507  -19.1400 C   0  0  0  0  0  0  0  0  0  0  0  0
    4.5211  -47.1196  -18.0517 C   0  0  0  0  0  0  0  0  0  0  0  0
    6.0603  -45.4567  -18.9626 C   0  0  0  0  0  0  0  0  0  0  0  0
    4.8215  -46.8619  -20.3549 O   0  0  0  0  0  0  0  0  0  0  0  0
    4.5057  -45.9710  -20.6067 H   0  0  0  0  0  0  0  0  0  0  0  0
 17 18  1  0  0  0
 18 19  1  0  0  0
 19 20  2  0  0  0
 20  8  1  0  0  0
  8  9  2  0  0  0
  9 10  1  0  0  0
 10  1  1  0  0  0
  1  2  2  0  0  0
  2  3  1  0  0  0
  3 23  1  0  0  0
 23 24  2  0  0  0
 23 25  2  0  0  0
 23 26  1  0  0  0
 26 28  1  0  0  0
 28 29  1  0  0  0
 29 30  1  0  0  0
 30 31  1  0  0  0
 30 32  1  0  0  0
 30 33  1  0  0  0
  3  4  2  0  0  0
  4  5  1  0  0  0
  5  6  2  0  0  0
  6  7  1  0  0  0
 10 11  2  0  0  0
 11 12  1  0  0  0
 12 13  2  0  0  0
 13 14  1  0  0  0
 20 21  1  0  0  0
 21 22  1  0  0  0
 22 18  2  0  0  0
 13  8  1  0  0  0
  6  1  1  0  0  0
 26 27  1  0  0  0
 33 34  1  0  0  0
 14 15  1  0  0  0
 14 16  1  0  0  0
M  END
> <minimizedAffinity>
-7.09709

> <CNNscore>
0.4822909236

> <CNNaffinity>
6.8289556503

> <CNN_VS>
3.2935433388

> <CNNaffinity_variance>
0.4076374173

$$$$
[H]OC(C([H])([H])[H])(C([H])([H])[H])C([H])([H])C([H])([H])N([H])S(=O)(=O)c1c([H])c([H])c(C([H])([H])[H])c(-c2c([H])nc(N([H])[H])c(-c3onc(C([H])([H])[H])c3[H])c2[H])c1[H]


 34 36  0  0  0  0  0  0  0  0999 V2000
    0.8227  -52.4221  -22.2963 C   0  0  0  0  0  0  0  0  0  0  0  0
    1.9096  -51.5489  -22.4229 C   0  0  0  0  0  0  0  0  0  0  0  0
    2.5732  -51.3850  -23.6205 C   0  0  0  0  0  0  0  0  0  0  0  0
    2.1784  -52.0838  -24.7323 C   0  0  0  0  0  0  0  0  0  0  0  0
    1.1111  -52.9495  -24.6346 C   0  0  0  0  0  0  0  0  0  0  0  0
    0.4363  -53.1134  -23.4098 C   0  0  0  0  0  0  0  0  0  0  0  0
   -0.7249  -54.0399  -23.3362 C   0  0  0  0  0  0  0  0  0  0  0  0
   -0.1202  -52.0090  -18.7162 C   0  0  0  0  0  0  0  0  0  0  0  0
    0.5305  -51.8154  -19.9433 C   0  0  0  0  0  0  0  0  0  0  0  0
    0.1467  -52.5929  -21.0153 C   0  0  0  0  0  0  0  0  0  0  0  0
   -0.8575  -53.5227  -20.8279 C   0  0  0  0  0  0  0  0  0  0  0  0
   -1.4686  -53.6952  -19.6508 N   0  0  0  0  0  0  0  0  0  0  0  0
   -1.1006  -52.9339  -18.5810 C   0  0  0  0  0  0  0  0  0  0  0  0
   -1.7724  -53.1497  -17.3579 N   0  0  0  0  0  0  0  0  0  0  0  0
   -1.4575  -53.8442  -16.6417 H   0  0  0  0  0  0  0  0  0  0  0  0
   -2.6235  -52.6080  -17.1293 H   0  0  0  0  0  0  0  0  0  0  0  0
    1.6447  -48.2076  -15.8550 C   0  0  0  0  0  0  0  0  0  0  0  0
    1.1008  -49.5145  -16.3333 C   0  0  0  0  0  0  0  0  0  0  0  0
    0.8027  -49.8729  -17.6621 C   0  0  0  0  0  0  0  0  0  0  0  0
    0.3355  -51.1491  -17.6155 C   0  0  0  0  0  0  0  0  0  0  0  0
    0.3491  -51.5374  -16.3473 O   0  0  0  0  0  0  0  0  0  0  0  0
    0.7902  -50.5944  -15.6111 N   0  0  0  0  0  0  0  0  0  0  0  0
    3.9364  -50.2685  -23.7144 S   0  0  0  0  0  0  0  0  0  0  0  0
    4.7945  -50.7248  -24.8720 O   0  0  0  0  0  0  0  0  0  0  0  0
    3.4258  -48.8861  -23.9179 O   0  0  0  0  0  0  0  0  0  0  0  0
    4.8515  -50.4477  -22.2878 N   0  0  0  0  0  0  0  0  0  0  0  0
    5.8314  -50.7328  -22.5823 H   0  0  0  0  0  0  0  0  0  0  0  0
    4.9108  -49.2309  -21.5038 C   0  0  0  0  0  0  0  0  0  0  0  0
    3.8645  -49.1819  -20.4383 C   0  0  0  0  0  0  0  0  0  0  0  0
    2.9634  -47.9970  -20.5404 C   0  0  0  0  0  0  0  0  0  0  0  0
    1.5405  -48.3114  -20.8722 C   0  0  0  0  0  0  0  0  0  0  0  0
    3.0020  -47.2379  -19.2364 C   0  0  0  0  0  0  0  0  0  0  0  0
    3.4517  -47.1352  -21.5245 O   0  0  0  0  0  0  0  0  0  0  0  0
    3.3294  -46.1952  -21.2834 H   0  0  0  0  0  0  0  0  0  0  0  0
 17 18  1  0  0  0
 18 19  1  0  0  0
 19 20  2  0  0  0
 20  8  1  0  0  0
  8  9  2  0  0  0
  9 10  1  0  0  0
 10  1  1  0  0  0
  1  2  2  0  0  0
  2  3  1  0  0  0
  3 23  1  0  0  0
 23 24  2  0  0  0
 23 25  2  0  0  0
 23 26  1  0  0  0
 26 28  1  0  0  0
 28 29  1  0  0  0
 29 30  1  0  0  0
 30 31  1  0  0  0
 30 32  1  0  0  0
 30 33  1  0  0  0
  3  4  2  0  0  0
  4  5  1  0  0  0
  5  6  2  0  0  0
  6  7  1  0  0  0
 10 11  2  0  0  0
 11 12  1  0  0  0
 12 13  2  0  0  0
 13 14  1  0  0  0
 20 21  1  0  0  0
 21 22  1  0  0  0
 22 18  2  0  0  0
 13  8  1  0  0  0
  6  1  1  0  0  0
 26 27  1  0  0  0
 33 34  1  0  0  0
 14 15  1  0  0  0
 14 16  1  0  0  0
M  END
> <minimizedAffinity>
-6.71620

> <CNNscore>
0.4783309996

> <CNNaffinity>
6.5312681198

> <CNN_VS>
3.1241080761

> <CNNaffinity_variance>
0.1538531482

$$$$
[H]OC(C([H])([H])[H])(C([H])([H])[H])C([H])([H])C([H])([H])N([H])S(=O)(=O)c1c([H])c([H])c(C([H])([H])[H])c(-c2c([H])nc(N([H])[H])c(-c3onc(C([H])([H])[H])c3[H])c2[H])c1[H]


 34 36  0  0  0  0  0  0  0  0999 V2000
    0.2760  -53.4795  -23.4073 C   0  0  0  0  0  0  0  0  0  0  0  0
    1.2922  -52.8545  -24.1399 C   0  0  0  0  0  0  0  0  0  0  0  0
    1.5141  -53.1474  -25.4690 C   0  0  0  0  0  0  0  0  0  0  0  0
    0.7329  -54.0715  -26.1142 C   0  0  0  0  0  0  0  0  0  0  0  0
   -0.2744  -54.7006  -25.4159 C   0  0  0  0  0  0  0  0  0  0  0  0
   -0.4974  -54.3981  -24.0591 C   0  0  0  0  0  0  0  0  0  0  0  0
   -1.6038  -55.0777  -23.3336 C   0  0  0  0  0  0  0  0  0  0  0  0
    0.8168  -52.1609  -19.9655 C   0  0  0  0  0  0  0  0  0  0  0  0
    1.0256  -52.4341  -21.3251 C   0  0  0  0  0  0  0  0  0  0  0  0
    0.0708  -53.1671  -21.9976 C   0  0  0  0  0  0  0  0  0  0  0  0
   -1.0419  -53.5955  -21.3001 C   0  0  0  0  0  0  0  0  0  0  0  0
   -1.2265  -53.3264  -20.0031 N   0  0  0  0  0  0  0  0  0  0  0  0
   -0.2915  -52.6025  -19.3240 C   0  0  0  0  0  0  0  0  0  0  0  0
   -0.5272  -52.3419  -17.9563 N   0  0  0  0  0  0  0  0  0  0  0  0
   -0.2163  -52.9780  -17.1862 H   0  0  0  0  0  0  0  0  0  0  0  0
   -1.0312  -51.4854  -17.6694 H   0  0  0  0  0  0  0  0  0  0  0  0
    3.5687  -48.5436  -17.7086 C   0  0  0  0  0  0  0  0  0  0  0  0
    3.1036  -49.8245  -18.3212 C   0  0  0  0  0  0  0  0  0  0  0  0
    1.8363  -50.0873  -18.8760 C   0  0  0  0  0  0  0  0  0  0  0  0
    1.8709  -51.3761  -19.3085 C   0  0  0  0  0  0  0  0  0  0  0  0
    3.0748  -51.8610  -19.0350 O   0  0  0  0  0  0  0  0  0  0  0  0
    3.7826  -50.9656  -18.4665 N   0  0  0  0  0  0  0  0  0  0  0  0
    2.8117  -52.3246  -26.3366 S   0  0  0  0  0  0  0  0  0  0  0  0
    3.3534  -53.3097  -27.3469 O   0  0  0  0  0  0  0  0  0  0  0  0
    2.2677  -51.1051  -26.9924 O   0  0  0  0  0  0  0  0  0  0  0  0
    4.0536  -51.9931  -25.2175 N   0  0  0  0  0  0  0  0  0  0  0  0
    4.9666  -52.2918  -25.6707 H   0  0  0  0  0  0  0  0  0  0  0  0
    4.1225  -50.5918  -24.8560 C   0  0  0  0  0  0  0  0  0  0  0  0
    5.0918  -50.3306  -23.7494 C   0  0  0  0  0  0  0  0  0  0  0  0
    4.4572  -50.2774  -22.4000 C   0  0  0  0  0  0  0  0  0  0  0  0
    5.2298  -49.5226  -21.3671 C   0  0  0  0  0  0  0  0  0  0  0  0
    3.0853  -49.6610  -22.5273 C   0  0  0  0  0  0  0  0  0  0  0  0
    4.2734  -51.5793  -21.9300 O   0  0  0  0  0  0  0  0  0  0  0  0
    3.4381  -51.6751  -21.4302 H   0  0  0  0  0  0  0  0  0  0  0  0
 17 18  1  0  0  0
 18 19  1  0  0  0
 19 20  2  0  0  0
 20  8  1  0  0  0
  8  9  2  0  0  0
  9 10  1  0  0  0
 10  1  1  0  0  0
  1  2  2  0  0  0
  2  3  1  0  0  0
  3 23  1  0  0  0
 23 24  2  0  0  0
 23 25  2  0  0  0
 23 26  1  0  0  0
 26 28  1  0  0  0
 28 29  1  0  0  0
 29 30  1  0  0  0
 30 31  1  0  0  0
 30 32  1  0  0  0
 30 33  1  0  0  0
  3  4  2  0  0  0
  4  5  1  0  0  0
  5  6  2  0  0  0
  6  7  1  0  0  0
 10 11  2  0  0  0
 11 12  1  0  0  0
 12 13  2  0  0  0
 13 14  1  0  0  0
 20 21  1  0  0  0
 21 22  1  0  0  0
 22 18  2  0  0  0
 13  8  1  0  0  0
  6  1  1  0  0  0
 26 27  1  0  0  0
 33 34  1  0  0  0
 14 15  1  0  0  0
 14 16  1  0  0  0
M  END
> <minimizedAffinity>
-7.64825

> <CNNscore>
0.3413932621

> <CNNaffinity>
6.7283759117

> <CNN_VS>
2.2970221043

> <CNNaffinity_variance>
0.2011646926

$$$$
[H]/C(=C(/[H])c1c([H])c(OC([H])([H])[H])c([H])c(OC([H])([H])[H])c1[H])c1c([H])c([H])c(OC([H])([H])C([H])([H])[H])c([H])c1[H]


 21 22  0  0  0  0  0  0  0  0999 V2000
    1.2267  -50.4547  -22.1680 C   0  0  0  0  0  0  0  0  0  0  0  0
    1.3886  -51.1660  -23.2588 C   0  0  0  0  0  0  0  0  0  0  0  0
    3.4606  -46.9066  -21.3745 C   0  0  0  0  0  0  0  0  0  0  0  0
    3.4705  -47.4977  -22.6163 C   0  0  0  0  0  0  0  0  0  0  0  0
    2.7369  -48.6510  -22.8526 C   0  0  0  0  0  0  0  0  0  0  0  0
    1.9815  -49.2395  -21.8659 C   0  0  0  0  0  0  0  0  0  0  0  0
    1.9711  -48.6499  -20.6258 C   0  0  0  0  0  0  0  0  0  0  0  0
    2.7072  -47.4895  -20.3824 C   0  0  0  0  0  0  0  0  0  0  0  0
    4.1790  -45.7510  -21.0895 O   0  0  0  0  0  0  0  0  0  0  0  0
    6.2082  -45.1661  -19.9485 C   0  0  0  0  0  0  0  0  0  0  0  0
    4.7666  -45.6155  -19.8172 C   0  0  0  0  0  0  0  0  0  0  0  0
    0.6186  -52.3713  -23.5259 C   0  0  0  0  0  0  0  0  0  0  0  0
   -0.0982  -52.9349  -22.4661 C   0  0  0  0  0  0  0  0  0  0  0  0
   -0.8596  -54.0720  -22.6018 C   0  0  0  0  0  0  0  0  0  0  0  0
   -0.9252  -54.6900  -23.8323 C   0  0  0  0  0  0  0  0  0  0  0  0
   -0.2224  -54.1389  -24.8754 C   0  0  0  0  0  0  0  0  0  0  0  0
    0.5453  -52.9922  -24.7376 C   0  0  0  0  0  0  0  0  0  0  0  0
   -1.5263  -54.5401  -21.4845 O   0  0  0  0  0  0  0  0  0  0  0  0
   -1.7471  -53.7978  -20.3164 C   0  0  0  0  0  0  0  0  0  0  0  0
   -0.3029  -54.7785  -26.1069 O   0  0  0  0  0  0  0  0  0  0  0  0
    0.0863  -54.2024  -27.3204 C   0  0  0  0  0  0  0  0  0  0  0  0
 10 11  1  0  0  0
 11  9  1  0  0  0
  9  3  1  0  0  0
  3  4  2  0  0  0
  4  5  1  0  0  0
  5  6  2  0  0  0
  6  1  1  0  0  0
  1  2  2  0  0  0
  2 12  1  0  0  0
 12 13  2  0  0  0
 13 14  1  0  0  0
 14 18  1  0  0  0
 18 19  1  0  0  0
 14 15  2  0  0  0
 15 16  1  0  0  0
 16 20  1  0  0  0
 20 21  1  0  0  0
 16 17  2  0  0  0
  6  7  1  0  0  0
  7  8  2  0  0  0
  8  3  1  0  0  0
 17 12  1  0  0  0
M  END
> <minimizedAffinity>
-5.75331

> <CNNscore>
0.4973625541

> <CNNaffinity>
5.4146876335

> <CNN_VS>
2.6930627823

> <CNNaffinity_variance>
0.6681497097

$$$$
[H]/C(=C(/[H])c1c([H])c(OC([H])([H])[H])c([H])c(OC([H])([H])[H])c1[H])c1c([H])c([H])c(OC([H])([H])C([H])([H])[H])c([H])c1[H]


 21 22  0  0  0  0  0  0  0  0999 V2000
   -0.2167  -52.5188  -21.8449 C   0  0  0  0  0  0  0  0  0  0  0  0
    0.4472  -51.9016  -22.7937 C   0  0  0  0  0  0  0  0  0  0  0  0
    0.0027  -51.3573  -17.7447 C   0  0  0  0  0  0  0  0  0  0  0  0
    0.5192  -50.5650  -18.7432 C   0  0  0  0  0  0  0  0  0  0  0  0
    0.4371  -50.9618  -20.0699 C   0  0  0  0  0  0  0  0  0  0  0  0
   -0.1566  -52.1479  -20.4319 C   0  0  0  0  0  0  0  0  0  0  0  0
   -0.6725  -52.9395  -19.4356 C   0  0  0  0  0  0  0  0  0  0  0  0
   -0.5927  -52.5453  -18.0991 C   0  0  0  0  0  0  0  0  0  0  0  0
    0.0609  -51.0025  -16.4018 O   0  0  0  0  0  0  0  0  0  0  0  0
    0.8140  -52.0064  -14.3556 C   0  0  0  0  0  0  0  0  0  0  0  0
   -0.2536  -51.9726  -15.4310 C   0  0  0  0  0  0  0  0  0  0  0  0
    0.3628  -52.2991  -24.1908 C   0  0  0  0  0  0  0  0  0  0  0  0
   -0.8792  -52.1941  -24.8242 C   0  0  0  0  0  0  0  0  0  0  0  0
   -1.0769  -52.5405  -26.1403 C   0  0  0  0  0  0  0  0  0  0  0  0
   -0.0103  -53.0127  -26.8750 C   0  0  0  0  0  0  0  0  0  0  0  0
    1.2109  -53.1169  -26.2558 C   0  0  0  0  0  0  0  0  0  0  0  0
    1.4094  -52.7674  -24.9285 C   0  0  0  0  0  0  0  0  0  0  0  0
   -2.3490  -52.3953  -26.6623 O   0  0  0  0  0  0  0  0  0  0  0  0
   -2.6741  -52.5163  -28.0203 C   0  0  0  0  0  0  0  0  0  0  0  0
    2.2722  -53.5952  -27.0155 O   0  0  0  0  0  0  0  0  0  0  0  0
    2.9312  -52.8548  -28.0021 C   0  0  0  0  0  0  0  0  0  0  0  0
 10 11  1  0  0  0
 11  9  1  0  0  0
  9  3  1  0  0  0
  3  4  2  0  0  0
  4  5  1  0  0  0
  5  6  2  0  0  0
  6  1  1  0  0  0
  1  2  2  0  0  0
  2 12  1  0  0  0
 12 13  2  0  0  0
 13 14  1  0  0  0
 14 18  1  0  0  0
 18 19  1  0  0  0
 14 15  2  0  0  0
 15 16  1  0  0  0
 16 20  1  0  0  0
 20 21  1  0  0  0
 16 17  2  0  0  0
  6  7  1  0  0  0
  7  8  2  0  0  0
  8  3  1  0  0  0
 17 12  1  0  0  0
M  END
> <minimizedAffinity>
-6.61659

> <CNNscore>
0.4746325314

> <CNNaffinity>
5.4757480621

> <CNN_VS>
2.5989682674

> <CNNaffinity_variance>
0.1846870929

$$$$
[H]/C(=C(/[H])c1c([H])c(OC([H])([H])[H])c([H])c(OC([H])([H])[H])c1[H])c1c([H])c([H])c(OC([H])([H])C([H])([H])[H])c([H])c1[H]


 21 22  0  0  0  0  0  0  0  0999 V2000
    1.8513  -51.0643  -24.2985 C   0  0  0  0  0  0  0  0  0  0  0  0
    2.0656  -50.3048  -23.2501 C   0  0  0  0  0  0  0  0  0  0  0  0
   -0.6703  -54.5048  -24.1813 C   0  0  0  0  0  0  0  0  0  0  0  0
   -0.1746  -53.9392  -23.0298 C   0  0  0  0  0  0  0  0  0  0  0  0
    0.6435  -52.8207  -23.0907 C   0  0  0  0  0  0  0  0  0  0  0  0
    0.9856  -52.2425  -24.2903 C   0  0  0  0  0  0  0  0  0  0  0  0
    0.4912  -52.8065  -25.4405 C   0  0  0  0  0  0  0  0  0  0  0  0
   -0.3324  -53.9319  -25.3851 C   0  0  0  0  0  0  0  0  0  0  0  0
   -1.4934  -55.6251  -24.1711 O   0  0  0  0  0  0  0  0  0  0  0  0
   -0.1661  -56.2415  -26.0738 C   0  0  0  0  0  0  0  0  0  0  0  0
   -1.2325  -56.6652  -25.0836 C   0  0  0  0  0  0  0  0  0  0  0  0
    2.9346  -49.1387  -23.2956 C   0  0  0  0  0  0  0  0  0  0  0  0
    2.8602  -48.2289  -22.2365 C   0  0  0  0  0  0  0  0  0  0  0  0
    3.6329  -47.0931  -22.1734 C   0  0  0  0  0  0  0  0  0  0  0  0
    4.5222  -46.8316  -23.1938 C   0  0  0  0  0  0  0  0  0  0  0  0
    4.5976  -47.7232  -24.2354 C   0  0  0  0  0  0  0  0  0  0  0  0
    3.8181  -48.8684  -24.2983 C   0  0  0  0  0  0  0  0  0  0  0  0
    3.4749  -46.2645  -21.0777 O   0  0  0  0  0  0  0  0  0  0  0  0
    4.4790  -45.4453  -20.5440 C   0  0  0  0  0  0  0  0  0  0  0  0
    5.5010  -47.4397  -25.2531 O   0  0  0  0  0  0  0  0  0  0  0  0
    6.2710  -48.4024  -25.9135 C   0  0  0  0  0  0  0  0  0  0  0  0
 10 11  1  0  0  0
 11  9  1  0  0  0
  9  3  1  0  0  0
  3  4  2  0  0  0
  4  5  1  0  0  0
  5  6  2  0  0  0
  6  1  1  0  0  0
  1  2  2  0  0  0
  2 12  1  0  0  0
 12 13  2  0  0  0
 13 14  1  0  0  0
 14 18  1  0  0  0
 18 19  1  0  0  0
 14 15  2  0  0  0
 15 16  1  0  0  0
 16 20  1  0  0  0
 20 21  1  0  0  0
 16 17  2  0  0  0
  6  7  1  0  0  0
  7  8  2  0  0  0
  8  3  1  0  0  0
 17 12  1  0  0  0
M  END
> <minimizedAffinity>
-3.47584

> <CNNscore>
0.3180645108

> <CNNaffinity>
5.0900292397

> <CNN_VS>
1.6189576387

> <CNNaffinity_variance>
1.1211752892

$$$$
[H]/C(=C(/[H])c1c([H])c(OC([H])([H])[H])c([H])c(OC([H])([H])[H])c1[H])c1c([H])c([H])c(OC([H])([H])C([H])([H])[H])c([H])c1[H]


 21 22  0  0  0  0  0  0  0  0999 V2000
    0.3241  -51.9090  -22.5495 C   0  0  0  0  0  0  0  0  0  0  0  0
    0.0744  -52.6020  -21.4635 C   0  0  0  0  0  0  0  0  0  0  0  0
    0.2984  -53.4676  -26.5218 C   0  0  0  0  0  0  0  0  0  0  0  0
    0.7768  -52.2074  -26.2489 C   0  0  0  0  0  0  0  0  0  0  0  0
    0.7759  -51.7203  -24.9501 C   0  0  0  0  0  0  0  0  0  0  0  0
    0.3024  -52.4702  -23.8994 C   0  0  0  0  0  0  0  0  0  0  0  0
   -0.1754  -53.7285  -24.1710 C   0  0  0  0  0  0  0  0  0  0  0  0
   -0.1770  -54.2237  -25.4759 C   0  0  0  0  0  0  0  0  0  0  0  0
    0.2787  -53.9992  -27.8062 O   0  0  0  0  0  0  0  0  0  0  0  0
   -1.1343  -52.7142  -29.2601 C   0  0  0  0  0  0  0  0  0  0  0  0
    0.2826  -53.1176  -28.9040 C   0  0  0  0  0  0  0  0  0  0  0  0
    0.1053  -52.0091  -20.1351 C   0  0  0  0  0  0  0  0  0  0  0  0
    0.7824  -50.7960  -19.9785 C   0  0  0  0  0  0  0  0  0  0  0  0
    0.8766  -50.1449  -18.7709 C   0  0  0  0  0  0  0  0  0  0  0  0
    0.2808  -50.7047  -17.6610 C   0  0  0  0  0  0  0  0  0  0  0  0
   -0.3852  -51.8961  -17.8114 C   0  0  0  0  0  0  0  0  0  0  0  0
   -0.4797  -52.5521  -19.0296 C   0  0  0  0  0  0  0  0  0  0  0  0
    1.5718  -48.9501  -18.7338 O   0  0  0  0  0  0  0  0  0  0  0  0
    2.1450  -48.3242  -19.8491 C   0  0  0  0  0  0  0  0  0  0  0  0
   -0.9784  -52.4423  -16.6792 O   0  0  0  0  0  0  0  0  0  0  0  0
   -1.7324  -51.7120  -15.7551 C   0  0  0  0  0  0  0  0  0  0  0  0
 10 11  1  0  0  0
 11  9  1  0  0  0
  9  3  1  0  0  0
  3  4  2  0  0  0
  4  5  1  0  0  0
  5  6  2  0  0  0
  6  1  1  0  0  0
  1  2  2  0  0  0
  2 12  1  0  0  0
 12 13  2  0  0  0
 13 14  1  0  0  0
 14 18  1  0  0  0
 18 19  1  0  0  0
 14 15  2  0  0  0
 15 16  1  0  0  0
 16 20  1  0  0  0
 20 21  1  0  0  0
 16 17  2  0  0  0
  6  7  1  0  0  0
  7  8  2  0  0  0
  8  3  1  0  0  0
 17 12  1  0  0  0
M  END
> <minimizedAffinity>
-6.69232

> <CNNscore>
0.3174931109

> <CNNaffinity>
5.3044781685

> <CNN_VS>
1.6841353178

> <CNNaffinity_variance>
0.1613508761

$$$$
[H]/C(=C(/[H])c1c([H])c(OC([H])([H])[H])c([H])c(OC([H])([H])[H])c1[H])c1c([H])c([H])c(OC([H])([H])C([H])([H])[H])c([H])c1[H]


 21 22  0  0  0  0  0  0  0  0999 V2000
    2.4849  -49.4464  -19.4389 C   0  0  0  0  0  0  0  0  0  0  0  0
    1.3085  -49.7380  -18.9358 C   0  0  0  0  0  0  0  0  0  0  0  0
    3.1273  -47.9143  -23.3694 C   0  0  0  0  0  0  0  0  0  0  0  0
    3.6862  -49.1033  -22.9629 C   0  0  0  0  0  0  0  0  0  0  0  0
    3.4644  -49.5832  -21.6804 C   0  0  0  0  0  0  0  0  0  0  0  0
    2.6868  -48.8962  -20.7783 C   0  0  0  0  0  0  0  0  0  0  0  0
    2.1284  -47.7089  -21.1834 C   0  0  0  0  0  0  0  0  0  0  0  0
    2.3482  -47.2213  -22.4725 C   0  0  0  0  0  0  0  0  0  0  0  0
    3.3206  -47.3929  -24.6436 O   0  0  0  0  0  0  0  0  0  0  0  0
    3.6654  -48.4931  -26.7489 C   0  0  0  0  0  0  0  0  0  0  0  0
    4.2982  -47.9757  -25.4725 C   0  0  0  0  0  0  0  0  0  0  0  0
    1.1458  -50.2848  -17.5973 C   0  0  0  0  0  0  0  0  0  0  0  0
   -0.1403  -50.6617  -17.1993 C   0  0  0  0  0  0  0  0  0  0  0  0
   -0.4126  -51.1895  -15.9590 C   0  0  0  0  0  0  0  0  0  0  0  0
    0.6209  -51.3582  -15.0624 C   0  0  0  0  0  0  0  0  0  0  0  0
    1.8854  -50.9890  -15.4503 C   0  0  0  0  0  0  0  0  0  0  0  0
    2.1591  -50.4568  -16.7013 C   0  0  0  0  0  0  0  0  0  0  0  0
   -1.7230  -51.5267  -15.6740 O   0  0  0  0  0  0  0  0  0  0  0  0
   -2.3585  -51.2959  -14.4463 C   0  0  0  0  0  0  0  0  0  0  0  0
    2.9121  -51.1679  -14.5305 O   0  0  0  0  0  0  0  0  0  0  0  0
    3.8529  -52.2009  -14.5914 C   0  0  0  0  0  0  0  0  0  0  0  0
 10 11  1  0  0  0
 11  9  1  0  0  0
  9  3  1  0  0  0
  3  4  2  0  0  0
  4  5  1  0  0  0
  5  6  2  0  0  0
  6  1  1  0  0  0
  1  2  2  0  0  0
  2 12  1  0  0  0
 12 13  2  0  0  0
 13 14  1  0  0  0
 14 18  1  0  0  0
 18 19  1  0  0  0
 14 15  2  0  0  0
 15 16  1  0  0  0
 16 20  1  0  0  0
 20 21  1  0  0  0
 16 17  2  0  0  0
  6  7  1  0  0  0
  7  8  2  0  0  0
  8  3  1  0  0  0
 17 12  1  0  0  0
M  END
> <minimizedAffinity>
-3.74393

> <CNNscore>
0.3104739785

> <CNNaffinity>
4.5903229713

> <CNN_VS>
1.4251757860

> <CNNaffinity_variance>
0.3501987755

$$$$
[H]/C(=C(/[H])c1c([H])c(OC([H])([H])[H])c([H])c(OC([H])([H])[H])c1[H])c1c([H])c([H])c(OC([H])([H])C([H])([H])[H])c([H])c1[H]


 21 22  0  0  0  0  0  0  0  0999 V2000
   -0.3736  -53.0279  -20.4642 C   0  0  0  0  0  0  0  0  0  0  0  0
    0.2700  -51.9644  -20.0437 C   0  0  0  0  0  0  0  0  0  0  0  0
   -0.5459  -54.1418  -24.5798 C   0  0  0  0  0  0  0  0  0  0  0  0
    0.0465  -52.9672  -24.1789 C   0  0  0  0  0  0  0  0  0  0  0  0
    0.0915  -52.6244  -22.8356 C   0  0  0  0  0  0  0  0  0  0  0  0
   -0.4480  -53.4364  -21.8661 C   0  0  0  0  0  0  0  0  0  0  0  0
   -1.0397  -54.6094  -22.2655 C   0  0  0  0  0  0  0  0  0  0  0  0
   -1.0879  -54.9594  -23.6157 C   0  0  0  0  0  0  0  0  0  0  0  0
   -0.6155  -54.5284  -25.9134 O   0  0  0  0  0  0  0  0  0  0  0  0
   -0.5470  -53.1580  -27.8829 C   0  0  0  0  0  0  0  0  0  0  0  0
    0.2498  -53.9179  -26.8413 C   0  0  0  0  0  0  0  0  0  0  0  0
    0.3225  -51.5885  -18.6391 C   0  0  0  0  0  0  0  0  0  0  0  0
   -0.7729  -51.9177  -17.8351 C   0  0  0  0  0  0  0  0  0  0  0  0
   -0.8332  -51.6127  -16.4956 C   0  0  0  0  0  0  0  0  0  0  0  0
    0.2274  -50.9539  -15.9112 C   0  0  0  0  0  0  0  0  0  0  0  0
    1.3048  -50.6292  -16.6982 C   0  0  0  0  0  0  0  0  0  0  0  0
    1.3649  -50.9371  -18.0490 C   0  0  0  0  0  0  0  0  0  0  0  0
   -1.9671  -51.9870  -15.7983 O   0  0  0  0  0  0  0  0  0  0  0  0
   -3.1641  -52.4140  -16.3894 C   0  0  0  0  0  0  0  0  0  0  0  0
    2.3628  -49.9653  -16.0882 O   0  0  0  0  0  0  0  0  0  0  0  0
    2.6179  -48.5970  -16.2250 C   0  0  0  0  0  0  0  0  0  0  0  0
 10 11  1  0  0  0
 11  9  1  0  0  0
  9  3  1  0  0  0
  3  4  2  0  0  0
  4  5  1  0  0  0
  5  6  2  0  0  0
  6  1  1  0  0  0
  1  2  2  0  0  0
  2 12  1  0  0  0
 12 13  2  0  0  0
 13 14  1  0  0  0
 14 18  1  0  0  0
 18 19  1  0  0  0
 14 15  2  0  0  0
 15 16  1  0  0  0
 16 20  1  0  0  0
 20 21  1  0  0  0
 16 17  2  0  0  0
  6  7  1  0  0  0
  7  8  2  0  0  0
  8  3  1  0  0  0
 17 12  1  0  0  0
M  END
> <minimizedAffinity>
-6.33133

> <CNNscore>
0.2942539752

> <CNNaffinity>
5.2196106911

> <CNN_VS>
1.5358911753

> <CNNaffinity_variance>
0.1835413873

$$$$
[H]/C(=C(/[H])c1c([H])c(OC([H])([H])[H])c([H])c(OC([H])([H])[H])c1[H])c1c([H])c([H])c(OC([H])([H])C([H])([H])[H])c([H])c1[H]


 21 22  0  0  0  0  0  0  0  0999 V2000
    0.5402  -51.7602  -21.5912 C   0  0  0  0  0  0  0  0  0  0  0  0
   -0.1923  -52.2558  -22.5606 C   0  0  0  0  0  0  0  0  0  0  0  0
   -0.4886  -51.8564  -17.4510 C   0  0  0  0  0  0  0  0  0  0  0  0
    0.2063  -50.8006  -17.9931 C   0  0  0  0  0  0  0  0  0  0  0  0
    0.5305  -50.7896  -19.3417 C   0  0  0  0  0  0  0  0  0  0  0  0
    0.1736  -51.8216  -20.1772 C   0  0  0  0  0  0  0  0  0  0  0  0
   -0.5203  -52.8761  -19.6368 C   0  0  0  0  0  0  0  0  0  0  0  0
   -0.8492  -52.8925  -18.2806 C   0  0  0  0  0  0  0  0  0  0  0  0
   -0.8363  -51.9126  -16.1062 O   0  0  0  0  0  0  0  0  0  0  0  0
   -2.1846  -50.1447  -15.2015 C   0  0  0  0  0  0  0  0  0  0  0  0
   -2.1479  -51.5645  -15.7308 C   0  0  0  0  0  0  0  0  0  0  0  0
    0.2050  -52.1761  -23.9581 C   0  0  0  0  0  0  0  0  0  0  0  0
   -0.6996  -52.6360  -24.9199 C   0  0  0  0  0  0  0  0  0  0  0  0
   -0.4318  -52.6096  -26.2685 C   0  0  0  0  0  0  0  0  0  0  0  0
    0.7782  -52.1098  -26.7004 C   0  0  0  0  0  0  0  0  0  0  0  0
    1.6688  -51.6573  -25.7583 C   0  0  0  0  0  0  0  0  0  0  0  0
    1.3980  -51.6843  -24.3984 C   0  0  0  0  0  0  0  0  0  0  0  0
   -1.4012  -53.0911  -27.1290 O   0  0  0  0  0  0  0  0  0  0  0  0
   -1.6103  -52.6294  -28.4357 C   0  0  0  0  0  0  0  0  0  0  0  0
    2.8824  -51.1577  -26.2162 O   0  0  0  0  0  0  0  0  0  0  0  0
    3.1840  -49.7962  -26.3219 C   0  0  0  0  0  0  0  0  0  0  0  0
 10 11  1  0  0  0
 11  9  1  0  0  0
  9  3  1  0  0  0
  3  4  2  0  0  0
  4  5  1  0  0  0
  5  6  2  0  0  0
  6  1  1  0  0  0
  1  2  2  0  0  0
  2 12  1  0  0  0
 12 13  2  0  0  0
 13 14  1  0  0  0
 14 18  1  0  0  0
 18 19  1  0  0  0
 14 15  2  0  0  0
 15 16  1  0  0  0
 16 20  1  0  0  0
 20 21  1  0  0  0
 16 17  2  0  0  0
  6  7  1  0  0  0
  7  8  2  0  0  0
  8  3  1  0  0  0
 17 12  1  0  0  0
M  END
> <minimizedAffinity>
-6.36310

> <CNNscore>
0.2679653168

> <CNNaffinity>
5.3242621422

> <CNN_VS>
1.4267176390

> <CNNaffinity_variance>
0.2549143434

$$$$
[H]/C(=C(/[H])c1c([H])c(OC([H])([H])[H])c([H])c(OC([H])([H])[H])c1[H])c1c([H])c([H])c(OC([H])([H])C([H])([H])[H])c([H])c1[H]


 21 22  0  0  0  0  0  0  0  0999 V2000
    0.8383  -52.1741  -22.2077 C   0  0  0  0  0  0  0  0  0  0  0  0
    0.0830  -52.5953  -21.2207 C   0  0  0  0  0  0  0  0  0  0  0  0
    0.7246  -53.9044  -26.1067 C   0  0  0  0  0  0  0  0  0  0  0  0
   -0.3386  -54.0154  -25.2414 C   0  0  0  0  0  0  0  0  0  0  0  0
   -0.2806  -53.4452  -23.9782 C   0  0  0  0  0  0  0  0  0  0  0  0
    0.8289  -52.7559  -23.5490 C   0  0  0  0  0  0  0  0  0  0  0  0
    1.8909  -52.6445  -24.4123 C   0  0  0  0  0  0  0  0  0  0  0  0
    1.8380  -53.2162  -25.6844 C   0  0  0  0  0  0  0  0  0  0  0  0
    0.7134  -54.4583  -27.3817 O   0  0  0  0  0  0  0  0  0  0  0  0
   -0.2997  -52.8901  -28.8904 C   0  0  0  0  0  0  0  0  0  0  0  0
    0.9647  -53.6214  -28.4857 C   0  0  0  0  0  0  0  0  0  0  0  0
    0.1194  -51.9912  -19.8975 C   0  0  0  0  0  0  0  0  0  0  0  0
    0.8676  -50.8214  -19.7356 C   0  0  0  0  0  0  0  0  0  0  0  0
    0.9736  -50.1644  -18.5322 C   0  0  0  0  0  0  0  0  0  0  0  0
    0.3173  -50.6737  -17.4320 C   0  0  0  0  0  0  0  0  0  0  0  0
   -0.4185  -51.8226  -17.5877 C   0  0  0  0  0  0  0  0  0  0  0  0
   -0.5249  -52.4845  -18.8018 C   0  0  0  0  0  0  0  0  0  0  0  0
    1.7415  -49.0152  -18.4891 O   0  0  0  0  0  0  0  0  0  0  0  0
    2.1541  -48.2873  -19.6134 C   0  0  0  0  0  0  0  0  0  0  0  0
   -1.0719  -52.3183  -16.4654 O   0  0  0  0  0  0  0  0  0  0  0  0
   -2.2420  -51.7710  -15.9296 C   0  0  0  0  0  0  0  0  0  0  0  0
 10 11  1  0  0  0
 11  9  1  0  0  0
  9  3  1  0  0  0
  3  4  2  0  0  0
  4  5  1  0  0  0
  5  6  2  0  0  0
  6  1  1  0  0  0
  1  2  2  0  0  0
  2 12  1  0  0  0
 12 13  2  0  0  0
 13 14  1  0  0  0
 14 18  1  0  0  0
 18 19  1  0  0  0
 14 15  2  0  0  0
 15 16  1  0  0  0
 16 20  1  0  0  0
 20 21  1  0  0  0
 16 17  2  0  0  0
  6  7  1  0  0  0
  7  8  2  0  0  0
  8  3  1  0  0  0
 17 12  1  0  0  0
M  END
> <minimizedAffinity>
-6.58267

> <CNNscore>
0.2677031457

> <CNNaffinity>
5.3729801178

> <CNN_VS>
1.4383636713

> <CNNaffinity_variance>
0.2298485041

$$$$
[H]/C(=C(/[H])c1c([H])c(OC([H])([H])[H])c([H])c(OC([H])([H])[H])c1[H])c1c([H])c([H])c(OC([H])([H])C([H])([H])[H])c([H])c1[H]


 21 22  0  0  0  0  0  0  0  0999 V2000
   -0.1450  -52.1201  -20.3548 C   0  0  0  0  0  0  0  0  0  0  0  0
   -0.5355  -52.5829  -19.1906 C   0  0  0  0  0  0  0  0  0  0  0  0
   -0.6677  -54.1087  -24.0939 C   0  0  0  0  0  0  0  0  0  0  0  0
   -0.1623  -52.8315  -24.0253 C   0  0  0  0  0  0  0  0  0  0  0  0
   -0.0005  -52.2035  -22.7991 C   0  0  0  0  0  0  0  0  0  0  0  0
   -0.3355  -52.8270  -21.6203 C   0  0  0  0  0  0  0  0  0  0  0  0
   -0.8402  -54.1023  -21.6879 C   0  0  0  0  0  0  0  0  0  0  0  0
   -1.0051  -54.7389  -22.9190 C   0  0  0  0  0  0  0  0  0  0  0  0
   -0.8479  -54.7791  -25.2985 O   0  0  0  0  0  0  0  0  0  0  0  0
    0.1803  -54.2783  -27.4088 C   0  0  0  0  0  0  0  0  0  0  0  0
    0.2777  -55.0409  -26.1026 C   0  0  0  0  0  0  0  0  0  0  0  0
   -0.3288  -51.8507  -17.9504 C   0  0  0  0  0  0  0  0  0  0  0  0
    0.4770  -50.7090  -17.9944 C   0  0  0  0  0  0  0  0  0  0  0  0
    0.7417  -49.9397  -16.8857 C   0  0  0  0  0  0  0  0  0  0  0  0
    0.1931  -50.3019  -15.6739 C   0  0  0  0  0  0  0  0  0  0  0  0
   -0.5989  -51.4227  -15.6274 C   0  0  0  0  0  0  0  0  0  0  0  0
   -0.8652  -52.1980  -16.7460 C   0  0  0  0  0  0  0  0  0  0  0  0
    1.5529  -48.8316  -17.0470 O   0  0  0  0  0  0  0  0  0  0  0  0
    2.4988  -48.6758  -18.0694 C   0  0  0  0  0  0  0  0  0  0  0  0
   -1.1415  -51.7692  -14.3955 O   0  0  0  0  0  0  0  0  0  0  0  0
   -2.4739  -51.5491  -14.0319 C   0  0  0  0  0  0  0  0  0  0  0  0
 10 11  1  0  0  0
 11  9  1  0  0  0
  9  3  1  0  0  0
  3  4  2  0  0  0
  4  5  1  0  0  0
  5  6  2  0  0  0
  6  1  1  0  0  0
  1  2  2  0  0  0
  2 12  1  0  0  0
 12 13  2  0  0  0
 13 14  1  0  0  0
 14 18  1  0  0  0
 18 19  1  0  0  0
 14 15  2  0  0  0
 15 16  1  0  0  0
 16 20  1  0  0  0
 20 21  1  0  0  0
 16 17  2  0  0  0
  6  7  1  0  0  0
  7  8  2  0  0  0
  8  3  1  0  0  0
 17 12  1  0  0  0
M  END
> <minimizedAffinity>
-6.25653

> <CNNscore>
0.2602108419

> <CNNaffinity>
5.0428228378

> <CNN_VS>
1.3121972084

> <CNNaffinity_variance>
0.2691982090

$$$$
[H]/C(C(=O)N(C([H])([H])[H])C([H])([H])c1sc2c([H])c([H])c([H])c([H])c2c1C([H])([H])[H])=C(/[H])c1c([H])nc2c(c1[H])C([H])([H])N([H])C([H])([H])C([H])([H])N2[H]


 30 33  0  0  0  0  0  0  0  0999 V2000
   -0.2875  -52.4782  -19.2295 N   0  0  0  0  0  0  0  0  0  0  0  0
    0.4391  -51.3257  -19.6888 C   0  0  0  0  0  0  0  0  0  0  0  0
   -0.9810  -53.2632  -20.2634 C   0  0  0  0  0  0  0  0  0  0  0  0
   -1.8848  -54.0548  -19.9958 O   0  0  0  0  0  0  0  0  0  0  0  0
   -0.5089  -53.1142  -21.6349 C   0  0  0  0  0  0  0  0  0  0  0  0
   -1.0005  -54.0082  -22.5079 C   0  0  0  0  0  0  0  0  0  0  0  0
   -0.6120  -54.0016  -23.9306 C   0  0  0  0  0  0  0  0  0  0  0  0
   -0.7353  -55.1585  -24.6671 C   0  0  0  0  0  0  0  0  0  0  0  0
   -0.2485  -55.2775  -25.9479 N   0  0  0  0  0  0  0  0  0  0  0  0
    0.3693  -54.2131  -26.4860 C   0  0  0  0  0  0  0  0  0  0  0  0
    0.4878  -53.0436  -25.7600 C   0  0  0  0  0  0  0  0  0  0  0  0
    0.0048  -52.9215  -24.4819 C   0  0  0  0  0  0  0  0  0  0  0  0
    1.1378  -51.7991  -26.2885 C   0  0  0  0  0  0  0  0  0  0  0  0
    2.4994  -52.1920  -26.5213 N   0  0  0  0  0  0  0  0  0  0  0  0
    2.7987  -52.7619  -27.7706 C   0  0  0  0  0  0  0  0  0  0  0  0
    1.8982  -53.6674  -28.4724 C   0  0  0  0  0  0  0  0  0  0  0  0
    0.9449  -54.4578  -27.7881 N   0  0  0  0  0  0  0  0  0  0  0  0
    2.8039  -52.7460  -25.6858 H   0  0  0  0  0  0  0  0  0  0  0  0
    0.6259  -55.3427  -28.2343 H   0  0  0  0  0  0  0  0  0  0  0  0
   -0.4645  -52.8803  -17.9325 C   0  0  0  0  0  0  0  0  0  0  0  0
    0.2156  -50.4656  -15.9965 C   0  0  0  0  0  0  0  0  0  0  0  0
   -1.1839  -51.0957  -16.1901 C   0  0  0  0  0  0  0  0  0  0  0  0
   -1.2538  -52.2691  -16.8668 C   0  0  0  0  0  0  0  0  0  0  0  0
   -2.9891  -52.6539  -16.6517 S   0  0  0  0  0  0  0  0  0  0  0  0
   -3.4542  -51.2875  -15.7527 C   0  0  0  0  0  0  0  0  0  0  0  0
   -4.6814  -50.8182  -15.2533 C   0  0  0  0  0  0  0  0  0  0  0  0
   -4.7788  -49.6183  -14.5967 C   0  0  0  0  0  0  0  0  0  0  0  0
   -3.5925  -48.9180  -14.4634 C   0  0  0  0  0  0  0  0  0  0  0  0
   -2.4190  -49.3569  -14.9373 C   0  0  0  0  0  0  0  0  0  0  0  0
   -2.2958  -50.5871  -15.6242 C   0  0  0  0  0  0  0  0  0  0  0  0
 21 22  1  0  0  0
 22 23  2  0  0  0
 23 20  1  0  0  0
 20  1  1  0  0  0
  1  2  1  0  0  0
  1  3  1  0  0  0
  3  4  2  0  0  0
  3  5  1  0  0  0
  5  6  2  0  0  0
  6  7  1  0  0  0
  7  8  2  0  0  0
  8  9  1  0  0  0
  9 10  2  0  0  0
 10 11  1  0  0  0
 11 12  2  0  0  0
 11 13  1  0  0  0
 13 14  1  0  0  0
 14 15  1  0  0  0
 15 16  1  0  0  0
 16 17  1  0  0  0
 23 24  1  0  0  0
 24 25  1  0  0  0
 25 26  2  0  0  0
 26 27  1  0  0  0
 27 28  2  0  0  0
 28 29  1  0  0  0
 29 30  2  0  0  0
 30 22  1  0  0  0
 12  7  1  0  0  0
 30 25  1  0  0  0
 17 10  1  0  0  0
 14 18  1  0  0  0
 17 19  1  0  0  0
M  END
> <minimizedAffinity>
-8.78153

> <CNNscore>
0.6773502827

> <CNNaffinity>
6.5321159363

> <CNN_VS>
4.4245305061

> <CNNaffinity_variance>
0.0621944964

$$$$
[H]/C(C(=O)N(C([H])([H])[H])C([H])([H])c1sc2c([H])c([H])c([H])c([H])c2c1C([H])([H])[H])=C(/[H])c1c([H])nc2c(c1[H])C([H])([H])N([H])C([H])([H])C([H])([H])N2[H]


 30 33  0  0  0  0  0  0  0  0999 V2000
    1.3986  -52.3715  -22.5472 N   0  0  0  0  0  0  0  0  0  0  0  0
    2.1455  -51.3434  -21.8748 C   0  0  0  0  0  0  0  0  0  0  0  0
    0.3514  -53.0367  -21.7556 C   0  0  0  0  0  0  0  0  0  0  0  0
   -0.1284  -54.1239  -22.0765 O   0  0  0  0  0  0  0  0  0  0  0  0
   -0.1523  -52.3201  -20.5898 C   0  0  0  0  0  0  0  0  0  0  0  0
    0.0109  -52.9527  -19.4167 C   0  0  0  0  0  0  0  0  0  0  0  0
   -0.4558  -52.3681  -18.1457 C   0  0  0  0  0  0  0  0  0  0  0  0
   -1.6358  -52.8135  -17.5933 C   0  0  0  0  0  0  0  0  0  0  0  0
   -2.2172  -52.2121  -16.5017 N   0  0  0  0  0  0  0  0  0  0  0  0
   -1.5957  -51.1487  -15.9659 C   0  0  0  0  0  0  0  0  0  0  0  0
   -0.4049  -50.7009  -16.5049 C   0  0  0  0  0  0  0  0  0  0  0  0
    0.1772  -51.2972  -17.5946 C   0  0  0  0  0  0  0  0  0  0  0  0
    0.3709  -49.5393  -15.9576 C   0  0  0  0  0  0  0  0  0  0  0  0
   -0.5164  -48.4221  -16.1225 N   0  0  0  0  0  0  0  0  0  0  0  0
   -1.4335  -48.1721  -15.0874 C   0  0  0  0  0  0  0  0  0  0  0  0
   -2.1057  -49.2289  -14.3426 C   0  0  0  0  0  0  0  0  0  0  0  0
   -2.3269  -50.5125  -14.8948 N   0  0  0  0  0  0  0  0  0  0  0  0
   -0.9271  -48.4983  -17.0833 H   0  0  0  0  0  0  0  0  0  0  0  0
   -3.1233  -51.0757  -14.5308 H   0  0  0  0  0  0  0  0  0  0  0  0
    1.6048  -52.8475  -23.8146 C   0  0  0  0  0  0  0  0  0  0  0  0
    2.7722  -52.6865  -26.7561 C   0  0  0  0  0  0  0  0  0  0  0  0
    1.2729  -52.6281  -26.3797 C   0  0  0  0  0  0  0  0  0  0  0  0
    0.9625  -52.4664  -25.0693 C   0  0  0  0  0  0  0  0  0  0  0  0
   -0.8135  -52.2724  -25.1880 S   0  0  0  0  0  0  0  0  0  0  0  0
   -0.9864  -52.4381  -26.8714 C   0  0  0  0  0  0  0  0  0  0  0  0
   -2.0898  -52.4716  -27.7415 C   0  0  0  0  0  0  0  0  0  0  0  0
   -1.9379  -52.6851  -29.0875 C   0  0  0  0  0  0  0  0  0  0  0  0
   -0.6335  -52.8587  -29.5162 C   0  0  0  0  0  0  0  0  0  0  0  0
    0.4237  -52.8296  -28.6942 C   0  0  0  0  0  0  0  0  0  0  0  0
    0.2907  -52.6189  -27.3019 C   0  0  0  0  0  0  0  0  0  0  0  0
 21 22  1  0  0  0
 22 23  2  0  0  0
 23 20  1  0  0  0
 20  1  1  0  0  0
  1  2  1  0  0  0
  1  3  1  0  0  0
  3  4  2  0  0  0
  3  5  1  0  0  0
  5  6  2  0  0  0
  6  7  1  0  0  0
  7  8  2  0  0  0
  8  9  1  0  0  0
  9 10  2  0  0  0
 10 11  1  0  0  0
 11 12  2  0  0  0
 11 13  1  0  0  0
 13 14  1  0  0  0
 14 15  1  0  0  0
 15 16  1  0  0  0
 16 17  1  0  0  0
 23 24  1  0  0  0
 24 25  1  0  0  0
 25 26  2  0  0  0
 26 27  1  0  0  0
 27 28  2  0  0  0
 28 29  1  0  0  0
 29 30  2  0  0  0
 30 22  1  0  0  0
 12  7  1  0  0  0
 30 25  1  0  0  0
 17 10  1  0  0  0
 14 18  1  0  0  0
 17 19  1  0  0  0
M  END
> <minimizedAffinity>
-8.61947

> <CNNscore>
0.5304564238

> <CNNaffinity>
6.4161033630

> <CNN_VS>
3.4034631252

> <CNNaffinity_variance>
0.1250111014

$$$$
[H]/C(C(=O)N(C([H])([H])[H])C([H])([H])c1sc2c([H])c([H])c([H])c([H])c2c1C([H])([H])[H])=C(/[H])c1c([H])nc2c(c1[H])C([H])([H])N([H])C([H])([H])C([H])([H])N2[H]


 30 33  0  0  0  0  0  0  0  0999 V2000
    1.9156  -52.1586  -22.8377 N   0  0  0  0  0  0  0  0  0  0  0  0
    2.9034  -51.1960  -22.4320 C   0  0  0  0  0  0  0  0  0  0  0  0
    0.9270  -52.5439  -21.8179 C   0  0  0  0  0  0  0  0  0  0  0  0
    0.2488  -53.5671  -21.9092 O   0  0  0  0  0  0  0  0  0  0  0  0
    0.7302  -51.6219  -20.7055 C   0  0  0  0  0  0  0  0  0  0  0  0
    0.2615  -52.1799  -19.5778 C   0  0  0  0  0  0  0  0  0  0  0  0
   -0.0041  -51.3817  -18.3665 C   0  0  0  0  0  0  0  0  0  0  0  0
    0.6931  -50.2114  -18.1657 C   0  0  0  0  0  0  0  0  0  0  0  0
    0.6202  -49.4967  -16.9929 N   0  0  0  0  0  0  0  0  0  0  0  0
   -0.1670  -49.9742  -16.0149 C   0  0  0  0  0  0  0  0  0  0  0  0
   -0.8802  -51.1412  -16.2104 C   0  0  0  0  0  0  0  0  0  0  0  0
   -0.8090  -51.8575  -17.3782 C   0  0  0  0  0  0  0  0  0  0  0  0
   -1.8021  -51.7338  -15.1860 C   0  0  0  0  0  0  0  0  0  0  0  0
   -0.9378  -52.0465  -14.0824 N   0  0  0  0  0  0  0  0  0  0  0  0
   -0.7041  -51.0292  -13.1415 C   0  0  0  0  0  0  0  0  0  0  0  0
   -0.5529  -49.6256  -13.5028 C   0  0  0  0  0  0  0  0  0  0  0  0
   -0.1011  -49.2242  -14.7821 N   0  0  0  0  0  0  0  0  0  0  0  0
   -0.0819  -52.4979  -14.4840 H   0  0  0  0  0  0  0  0  0  0  0  0
    0.3682  -48.2993  -14.8718 H   0  0  0  0  0  0  0  0  0  0  0  0
    1.8404  -52.8080  -24.0411 C   0  0  0  0  0  0  0  0  0  0  0  0
    2.7960  -52.6910  -27.0600 C   0  0  0  0  0  0  0  0  0  0  0  0
    1.3272  -52.6252  -26.5790 C   0  0  0  0  0  0  0  0  0  0  0  0
    1.1107  -52.4441  -25.2524 C   0  0  0  0  0  0  0  0  0  0  0  0
   -0.6692  -52.2495  -25.2475 S   0  0  0  0  0  0  0  0  0  0  0  0
   -0.9612  -52.4392  -26.9118 C   0  0  0  0  0  0  0  0  0  0  0  0
   -2.1237  -52.4838  -27.7007 C   0  0  0  0  0  0  0  0  0  0  0  0
   -2.0678  -52.7169  -29.0509 C   0  0  0  0  0  0  0  0  0  0  0  0
   -0.7972  -52.8986  -29.5686 C   0  0  0  0  0  0  0  0  0  0  0  0
    0.3157  -52.8590  -28.8242 C   0  0  0  0  0  0  0  0  0  0  0  0
    0.2820  -52.6280  -27.4292 C   0  0  0  0  0  0  0  0  0  0  0  0
 21 22  1  0  0  0
 22 23  2  0  0  0
 23 20  1  0  0  0
 20  1  1  0  0  0
  1  2  1  0  0  0
  1  3  1  0  0  0
  3  4  2  0  0  0
  3  5  1  0  0  0
  5  6  2  0  0  0
  6  7  1  0  0  0
  7  8  2  0  0  0
  8  9  1  0  0  0
  9 10  2  0  0  0
 10 11  1  0  0  0
 11 12  2  0  0  0
 11 13  1  0  0  0
 13 14  1  0  0  0
 14 15  1  0  0  0
 15 16  1  0  0  0
 16 17  1  0  0  0
 23 24  1  0  0  0
 24 25  1  0  0  0
 25 26  2  0  0  0
 26 27  1  0  0  0
 27 28  2  0  0  0
 28 29  1  0  0  0
 29 30  2  0  0  0
 30 22  1  0  0  0
 12  7  1  0  0  0
 30 25  1  0  0  0
 17 10  1  0  0  0
 14 18  1  0  0  0
 17 19  1  0  0  0
M  END
> <minimizedAffinity>
-8.25669

> <CNNscore>
0.4153471291

> <CNNaffinity>
6.2754106522

> <CNN_VS>
2.6064736843

> <CNNaffinity_variance>
0.3018382788

$$$$
[H]/C(C(=O)N(C([H])([H])[H])C([H])([H])c1sc2c([H])c([H])c([H])c([H])c2c1C([H])([H])[H])=C(/[H])c1c([H])nc2c(c1[H])C([H])([H])N([H])C([H])([H])C([H])([H])N2[H]


 30 33  0  0  0  0  0  0  0  0999 V2000
    0.2697  -51.9666  -22.2222 N   0  0  0  0  0  0  0  0  0  0  0  0
    1.0332  -50.7492  -22.2699 C   0  0  0  0  0  0  0  0  0  0  0  0
    0.1906  -52.6326  -20.9123 C   0  0  0  0  0  0  0  0  0  0  0  0
   -0.1352  -53.8134  -20.7906 O   0  0  0  0  0  0  0  0  0  0  0  0
    0.4558  -51.8127  -19.7360 C   0  0  0  0  0  0  0  0  0  0  0  0
    1.7487  -51.7169  -19.3868 C   0  0  0  0  0  0  0  0  0  0  0  0
    2.1822  -50.9359  -18.2133 C   0  0  0  0  0  0  0  0  0  0  0  0
    3.3731  -50.2467  -18.2663 C   0  0  0  0  0  0  0  0  0  0  0  0
    3.9221  -49.6293  -17.1668 N   0  0  0  0  0  0  0  0  0  0  0  0
    3.2569  -49.7123  -16.0029 C   0  0  0  0  0  0  0  0  0  0  0  0
    2.0551  -50.3913  -15.9414 C   0  0  0  0  0  0  0  0  0  0  0  0
    1.5051  -51.0096  -17.0355 C   0  0  0  0  0  0  0  0  0  0  0  0
    1.2319  -50.5133  -14.6932 C   0  0  0  0  0  0  0  0  0  0  0  0
    2.0785  -51.2417  -13.7903 N   0  0  0  0  0  0  0  0  0  0  0  0
    2.9765  -50.4952  -13.0085 C   0  0  0  0  0  0  0  0  0  0  0  0
    3.6810  -49.3196  -13.5035 C   0  0  0  0  0  0  0  0  0  0  0  0
    3.9546  -49.1323  -14.8789 N   0  0  0  0  0  0  0  0  0  0  0  0
    2.5002  -52.0300  -14.3367 H   0  0  0  0  0  0  0  0  0  0  0  0
    4.7680  -48.5390  -15.1438 H   0  0  0  0  0  0  0  0  0  0  0  0
   -0.3268  -52.6093  -23.2741 C   0  0  0  0  0  0  0  0  0  0  0  0
    2.1565  -53.0019  -25.2029 C   0  0  0  0  0  0  0  0  0  0  0  0
    0.6973  -52.7572  -25.6546 C   0  0  0  0  0  0  0  0  0  0  0  0
   -0.1943  -52.3706  -24.7085 C   0  0  0  0  0  0  0  0  0  0  0  0
   -1.6231  -52.0442  -25.7369 S   0  0  0  0  0  0  0  0  0  0  0  0
   -0.9597  -52.4499  -27.2490 C   0  0  0  0  0  0  0  0  0  0  0  0
   -1.4754  -52.5207  -28.5547 C   0  0  0  0  0  0  0  0  0  0  0  0
   -0.7094  -52.9500  -29.6080 C   0  0  0  0  0  0  0  0  0  0  0  0
    0.5915  -53.2994  -29.2906 C   0  0  0  0  0  0  0  0  0  0  0  0
    1.0909  -53.2363  -28.0493 C   0  0  0  0  0  0  0  0  0  0  0  0
    0.3177  -52.8043  -26.9465 C   0  0  0  0  0  0  0  0  0  0  0  0
 21 22  1  0  0  0
 22 23  2  0  0  0
 23 20  1  0  0  0
 20  1  1  0  0  0
  1  2  1  0  0  0
  1  3  1  0  0  0
  3  4  2  0  0  0
  3  5  1  0  0  0
  5  6  2  0  0  0
  6  7  1  0  0  0
  7  8  2  0  0  0
  8  9  1  0  0  0
  9 10  2  0  0  0
 10 11  1  0  0  0
 11 12  2  0  0  0
 11 13  1  0  0  0
 13 14  1  0  0  0
 14 15  1  0  0  0
 15 16  1  0  0  0
 16 17  1  0  0  0
 23 24  1  0  0  0
 24 25  1  0  0  0
 25 26  2  0  0  0
 26 27  1  0  0  0
 27 28  2  0  0  0
 28 29  1  0  0  0
 29 30  2  0  0  0
 30 22  1  0  0  0
 12  7  1  0  0  0
 30 25  1  0  0  0
 17 10  1  0  0  0
 14 18  1  0  0  0
 17 19  1  0  0  0
M  END
> <minimizedAffinity>
-7.41345

> <CNNscore>
0.3390613496

> <CNNaffinity>
5.9458150864

> <CNN_VS>
2.0159959793

> <CNNaffinity_variance>
0.3558155894

$$$$
[H]/C(C(=O)N(C([H])([H])[H])C([H])([H])c1sc2c([H])c([H])c([H])c([H])c2c1C([H])([H])[H])=C(/[H])c1c([H])nc2c(c1[H])C([H])([H])N([H])C([H])([H])C([H])([H])N2[H]


 30 33  0  0  0  0  0  0  0  0999 V2000
    0.3974  -52.3321  -22.0177 N   0  0  0  0  0  0  0  0  0  0  0  0
    0.9075  -50.9884  -21.9826 C   0  0  0  0  0  0  0  0  0  0  0  0
    0.2519  -53.0057  -20.7173 C   0  0  0  0  0  0  0  0  0  0  0  0
    0.1477  -54.2280  -20.6149 O   0  0  0  0  0  0  0  0  0  0  0  0
    0.1711  -52.1541  -19.5364 C   0  0  0  0  0  0  0  0  0  0  0  0
   -0.6132  -52.6186  -18.5505 C   0  0  0  0  0  0  0  0  0  0  0  0
   -0.8113  -51.8698  -17.2954 C   0  0  0  0  0  0  0  0  0  0  0  0
   -1.9092  -52.1478  -16.5123 C   0  0  0  0  0  0  0  0  0  0  0  0
   -2.2494  -51.3897  -15.4164 N   0  0  0  0  0  0  0  0  0  0  0  0
   -1.4687  -50.3397  -15.1126 C   0  0  0  0  0  0  0  0  0  0  0  0
   -0.3578  -50.0591  -15.8848 C   0  0  0  0  0  0  0  0  0  0  0  0
   -0.0161  -50.8121  -16.9794 C   0  0  0  0  0  0  0  0  0  0  0  0
    0.5838  -48.9250  -15.6059 C   0  0  0  0  0  0  0  0  0  0  0  0
   -0.2337  -47.7531  -15.7507 N   0  0  0  0  0  0  0  0  0  0  0  0
   -0.9393  -47.3179  -14.6160 C   0  0  0  0  0  0  0  0  0  0  0  0
   -1.5506  -48.2290  -13.6569 C   0  0  0  0  0  0  0  0  0  0  0  0
   -1.9571  -49.5356  -14.0166 N   0  0  0  0  0  0  0  0  0  0  0  0
   -0.8071  -47.8866  -16.6174 H   0  0  0  0  0  0  0  0  0  0  0  0
   -2.7189  -49.9842  -13.4668 H   0  0  0  0  0  0  0  0  0  0  0  0
    0.1037  -53.0755  -23.1297 C   0  0  0  0  0  0  0  0  0  0  0  0
    2.4367  -53.0669  -25.2740 C   0  0  0  0  0  0  0  0  0  0  0  0
    0.9304  -52.8999  -25.5840 C   0  0  0  0  0  0  0  0  0  0  0  0
    0.0960  -52.6847  -24.5366 C   0  0  0  0  0  0  0  0  0  0  0  0
   -1.4353  -52.3768  -25.4119 S   0  0  0  0  0  0  0  0  0  0  0  0
   -0.8742  -52.5735  -27.0050 C   0  0  0  0  0  0  0  0  0  0  0  0
   -1.4921  -52.5561  -28.2674 C   0  0  0  0  0  0  0  0  0  0  0  0
   -0.7884  -52.8133  -29.4159 C   0  0  0  0  0  0  0  0  0  0  0  0
    0.5572  -53.0837  -29.2381 C   0  0  0  0  0  0  0  0  0  0  0  0
    1.1540  -53.1037  -28.0391 C   0  0  0  0  0  0  0  0  0  0  0  0
    0.4471  -52.8493  -26.8406 C   0  0  0  0  0  0  0  0  0  0  0  0
 21 22  1  0  0  0
 22 23  2  0  0  0
 23 20  1  0  0  0
 20  1  1  0  0  0
  1  2  1  0  0  0
  1  3  1  0  0  0
  3  4  2  0  0  0
  3  5  1  0  0  0
  5  6  2  0  0  0
  6  7  1  0  0  0
  7  8  2  0  0  0
  8  9  1  0  0  0
  9 10  2  0  0  0
 10 11  1  0  0  0
 11 12  2  0  0  0
 11 13  1  0  0  0
 13 14  1  0  0  0
 14 15  1  0  0  0
 15 16  1  0  0  0
 16 17  1  0  0  0
 23 24  1  0  0  0
 24 25  1  0  0  0
 25 26  2  0  0  0
 26 27  1  0  0  0
 27 28  2  0  0  0
 28 29  1  0  0  0
 29 30  2  0  0  0
 30 22  1  0  0  0
 12  7  1  0  0  0
 30 25  1  0  0  0
 17 10  1  0  0  0
 14 18  1  0  0  0
 17 19  1  0  0  0
M  END
> <minimizedAffinity>
-8.12196

> <CNNscore>
0.3377955854

> <CNNaffinity>
6.1188340187

> <CNN_VS>
2.0669150352

> <CNNaffinity_variance>
0.2070965767

$$$$
[H]/C(C(=O)N(C([H])([H])[H])C([H])([H])c1sc2c([H])c([H])c([H])c([H])c2c1C([H])([H])[H])=C(/[H])c1c([H])nc2c(c1[H])C([H])([H])N([H])C([H])([H])C([H])([H])N2[H]


 30 33  0  0  0  0  0  0  0  0999 V2000
    0.0581  -51.3217  -18.9887 N   0  0  0  0  0  0  0  0  0  0  0  0
    0.7770  -50.3229  -19.7322 C   0  0  0  0  0  0  0  0  0  0  0  0
   -0.5365  -52.4141  -19.7753 C   0  0  0  0  0  0  0  0  0  0  0  0
   -1.4306  -53.1354  -19.3330 O   0  0  0  0  0  0  0  0  0  0  0  0
    0.0241  -52.6573  -21.0992 C   0  0  0  0  0  0  0  0  0  0  0  0
   -0.8588  -52.6132  -22.1098 C   0  0  0  0  0  0  0  0  0  0  0  0
   -0.4541  -52.8507  -23.5080 C   0  0  0  0  0  0  0  0  0  0  0  0
   -0.7564  -54.0563  -24.1004 C   0  0  0  0  0  0  0  0  0  0  0  0
   -0.2776  -54.4147  -25.3389 N   0  0  0  0  0  0  0  0  0  0  0  0
    0.5156  -53.5420  -25.9818 C   0  0  0  0  0  0  0  0  0  0  0  0
    0.8155  -52.3245  -25.4015 C   0  0  0  0  0  0  0  0  0  0  0  0
    0.3410  -51.9640  -24.1659 C   0  0  0  0  0  0  0  0  0  0  0  0
    1.6701  -51.2794  -26.0559 C   0  0  0  0  0  0  0  0  0  0  0  0
    2.9511  -51.9147  -26.1906 N   0  0  0  0  0  0  0  0  0  0  0  0
    3.1700  -52.6798  -27.3489 C   0  0  0  0  0  0  0  0  0  0  0  0
    2.1422  -53.5088  -27.9652 C   0  0  0  0  0  0  0  0  0  0  0  0
    1.0614  -54.0404  -27.2228 N   0  0  0  0  0  0  0  0  0  0  0  0
    3.1475  -52.3999  -25.2830 H   0  0  0  0  0  0  0  0  0  0  0  0
    0.6069  -54.9111  -27.5677 H   0  0  0  0  0  0  0  0  0  0  0  0
   -0.1951  -51.3268  -17.6429 C   0  0  0  0  0  0  0  0  0  0  0  0
   -0.6497  -51.7844  -14.5404 C   0  0  0  0  0  0  0  0  0  0  0  0
    0.7239  -51.6225  -15.2333 C   0  0  0  0  0  0  0  0  0  0  0  0
    0.7291  -51.1941  -16.5202 C   0  0  0  0  0  0  0  0  0  0  0  0
    2.4895  -50.9939  -16.7783 S   0  0  0  0  0  0  0  0  0  0  0  0
    3.0401  -51.4921  -15.2486 C   0  0  0  0  0  0  0  0  0  0  0  0
    4.3127  -51.6790  -14.6818 C   0  0  0  0  0  0  0  0  0  0  0  0
    4.4684  -52.1623  -13.4079 C   0  0  0  0  0  0  0  0  0  0  0  0
    3.2932  -52.4439  -12.7335 C   0  0  0  0  0  0  0  0  0  0  0  0
    2.0765  -52.2701  -13.2661 C   0  0  0  0  0  0  0  0  0  0  0  0
    1.8917  -51.7805  -14.5802 C   0  0  0  0  0  0  0  0  0  0  0  0
 21 22  1  0  0  0
 22 23  2  0  0  0
 23 20  1  0  0  0
 20  1  1  0  0  0
  1  2  1  0  0  0
  1  3  1  0  0  0
  3  4  2  0  0  0
  3  5  1  0  0  0
  5  6  2  0  0  0
  6  7  1  0  0  0
  7  8  2  0  0  0
  8  9  1  0  0  0
  9 10  2  0  0  0
 10 11  1  0  0  0
 11 12  2  0  0  0
 11 13  1  0  0  0
 13 14  1  0  0  0
 14 15  1  0  0  0
 15 16  1  0  0  0
 16 17  1  0  0  0
 23 24  1  0  0  0
 24 25  1  0  0  0
 25 26  2  0  0  0
 26 27  1  0  0  0
 27 28  2  0  0  0
 28 29  1  0  0  0
 29 30  2  0  0  0
 30 22  1  0  0  0
 12  7  1  0  0  0
 30 25  1  0  0  0
 17 10  1  0  0  0
 14 18  1  0  0  0
 17 19  1  0  0  0
M  END
> <minimizedAffinity>
-7.00682

> <CNNscore>
0.2317515761

> <CNNaffinity>
6.0952968597

> <CNN_VS>
1.4125946760

> <CNNaffinity_variance>
0.2650836408

$$$$
[H]/C(C(=O)N(C([H])([H])[H])C([H])([H])c1sc2c([H])c([H])c([H])c([H])c2c1C([H])([H])[H])=C(/[H])c1c([H])nc2c(c1[H])C([H])([H])N([H])C([H])([H])C([H])([H])N2[H]


 30 33  0  0  0  0  0  0  0  0999 V2000
    3.1360  -49.0468  -20.5701 N   0  0  0  0  0  0  0  0  0  0  0  0
    4.1606  -49.6969  -21.3413 C   0  0  0  0  0  0  0  0  0  0  0  0
    1.8239  -48.9060  -21.2214 C   0  0  0  0  0  0  0  0  0  0  0  0
    0.9753  -48.1046  -20.8304 O   0  0  0  0  0  0  0  0  0  0  0  0
    1.5343  -49.8098  -22.3284 C   0  0  0  0  0  0  0  0  0  0  0  0
    0.6844  -50.8091  -22.0419 C   0  0  0  0  0  0  0  0  0  0  0  0
    0.2994  -51.8160  -23.0484 C   0  0  0  0  0  0  0  0  0  0  0  0
    0.0855  -53.1170  -22.6510 C   0  0  0  0  0  0  0  0  0  0  0  0
   -0.1184  -54.1415  -23.5454 N   0  0  0  0  0  0  0  0  0  0  0  0
   -0.1049  -53.8434  -24.8550 C   0  0  0  0  0  0  0  0  0  0  0  0
    0.0968  -52.5393  -25.2642 C   0  0  0  0  0  0  0  0  0  0  0  0
    0.3021  -51.5149  -24.3751 C   0  0  0  0  0  0  0  0  0  0  0  0
    0.1022  -52.1102  -26.7018 C   0  0  0  0  0  0  0  0  0  0  0  0
    1.2145  -52.8190  -27.2702 N   0  0  0  0  0  0  0  0  0  0  0  0
    0.9690  -54.1136  -27.7588 C   0  0  0  0  0  0  0  0  0  0  0  0
    0.0653  -55.0547  -27.1100 C   0  0  0  0  0  0  0  0  0  0  0  0
   -0.2173  -54.9910  -25.7251 N   0  0  0  0  0  0  0  0  0  0  0  0
    2.0090  -52.7333  -26.5926 H   0  0  0  0  0  0  0  0  0  0  0  0
   -0.5108  -55.8645  -25.2407 H   0  0  0  0  0  0  0  0  0  0  0  0
    3.2690  -48.4813  -19.3300 C   0  0  0  0  0  0  0  0  0  0  0  0
    4.1696  -47.1570  -16.5957 C   0  0  0  0  0  0  0  0  0  0  0  0
    3.7810  -48.6416  -16.7903 C   0  0  0  0  0  0  0  0  0  0  0  0
    3.6567  -49.0944  -18.0627 C   0  0  0  0  0  0  0  0  0  0  0  0
    3.4009  -50.8391  -17.7526 S   0  0  0  0  0  0  0  0  0  0  0  0
    3.4530  -50.8168  -16.0531 C   0  0  0  0  0  0  0  0  0  0  0  0
    3.2676  -51.7912  -15.0573 C   0  0  0  0  0  0  0  0  0  0  0  0
    3.3070  -51.4732  -13.7239 C   0  0  0  0  0  0  0  0  0  0  0  0
    3.5432  -50.1394  -13.4398 C   0  0  0  0  0  0  0  0  0  0  0  0
    3.7196  -49.2040  -14.3822 C   0  0  0  0  0  0  0  0  0  0  0  0
    3.6755  -49.5071  -15.7631 C   0  0  0  0  0  0  0  0  0  0  0  0
 21 22  1  0  0  0
 22 23  2  0  0  0
 23 20  1  0  0  0
 20  1  1  0  0  0
  1  2  1  0  0  0
  1  3  1  0  0  0
  3  4  2  0  0  0
  3  5  1  0  0  0
  5  6  2  0  0  0
  6  7  1  0  0  0
  7  8  2  0  0  0
  8  9  1  0  0  0
  9 10  2  0  0  0
 10 11  1  0  0  0
 11 12  2  0  0  0
 11 13  1  0  0  0
 13 14  1  0  0  0
 14 15  1  0  0  0
 15 16  1  0  0  0
 16 17  1  0  0  0
 23 24  1  0  0  0
 24 25  1  0  0  0
 25 26  2  0  0  0
 26 27  1  0  0  0
 27 28  2  0  0  0
 28 29  1  0  0  0
 29 30  2  0  0  0
 30 22  1  0  0  0
 12  7  1  0  0  0
 30 25  1  0  0  0
 17 10  1  0  0  0
 14 18  1  0  0  0
 17 19  1  0  0  0
M  END
> <minimizedAffinity>
-6.52078

> <CNNscore>
0.2023502588

> <CNNaffinity>
5.9891963005

> <CNN_VS>
1.2119153738

> <CNNaffinity_variance>
0.4776465297

$$$$
[H]/C(C(=O)N(C([H])([H])[H])C([H])([H])c1sc2c([H])c([H])c([H])c([H])c2c1C([H])([H])[H])=C(/[H])c1c([H])nc2c(c1[H])C([H])([H])N([H])C([H])([H])C([H])([H])N2[H]


 30 33  0  0  0  0  0  0  0  0999 V2000
    2.0004  -52.0648  -22.6507 N   0  0  0  0  0  0  0  0  0  0  0  0
    3.1371  -51.1974  -22.4999 C   0  0  0  0  0  0  0  0  0  0  0  0
    1.1205  -52.1920  -21.4779 C   0  0  0  0  0  0  0  0  0  0  0  0
    0.3239  -53.1215  -21.3479 O   0  0  0  0  0  0  0  0  0  0  0  0
    1.1815  -51.1249  -20.4861 C   0  0  0  0  0  0  0  0  0  0  0  0
    1.1426  -51.5316  -19.2071 C   0  0  0  0  0  0  0  0  0  0  0  0
    1.1817  -50.5756  -18.0847 C   0  0  0  0  0  0  0  0  0  0  0  0
    0.0438  -50.3680  -17.3378 C   0  0  0  0  0  0  0  0  0  0  0  0
   -0.0467  -49.3826  -16.3826 N   0  0  0  0  0  0  0  0  0  0  0  0
    1.0271  -48.6006  -16.1839 C   0  0  0  0  0  0  0  0  0  0  0  0
    2.1780  -48.8082  -16.9196 C   0  0  0  0  0  0  0  0  0  0  0  0
    2.2716  -49.7890  -17.8741 C   0  0  0  0  0  0  0  0  0  0  0  0
    3.4316  -48.0020  -16.7477 C   0  0  0  0  0  0  0  0  0  0  0  0
    3.0371  -46.6684  -17.1058 N   0  0  0  0  0  0  0  0  0  0  0  0
    2.4962  -45.8636  -16.0886 C   0  0  0  0  0  0  0  0  0  0  0  0
    1.6128  -46.3757  -15.0490 C   0  0  0  0  0  0  0  0  0  0  0  0
    0.8111  -47.5251  -15.2441 N   0  0  0  0  0  0  0  0  0  0  0  0
    2.4614  -46.7446  -17.9779 H   0  0  0  0  0  0  0  0  0  0  0  0
   -0.0609  -47.6194  -14.6833 H   0  0  0  0  0  0  0  0  0  0  0  0
    1.6905  -52.8390  -23.7369 C   0  0  0  0  0  0  0  0  0  0  0  0
    2.9166  -52.6444  -26.6523 C   0  0  0  0  0  0  0  0  0  0  0  0
    1.4089  -52.6123  -26.3073 C   0  0  0  0  0  0  0  0  0  0  0  0
    1.0685  -52.4621  -25.0030 C   0  0  0  0  0  0  0  0  0  0  0  0
   -0.7075  -52.2964  -25.1583 S   0  0  0  0  0  0  0  0  0  0  0  0
   -0.8423  -52.4565  -26.8457 C   0  0  0  0  0  0  0  0  0  0  0  0
   -1.9266  -52.5036  -27.7389 C   0  0  0  0  0  0  0  0  0  0  0  0
   -1.7430  -52.7079  -29.0825 C   0  0  0  0  0  0  0  0  0  0  0  0
   -0.4272  -52.8582  -29.4844 C   0  0  0  0  0  0  0  0  0  0  0  0
    0.6119  -52.8161  -28.6401 C   0  0  0  0  0  0  0  0  0  0  0  0
    0.4463  -52.6145  -27.2500 C   0  0  0  0  0  0  0  0  0  0  0  0
 21 22  1  0  0  0
 22 23  2  0  0  0
 23 20  1  0  0  0
 20  1  1  0  0  0
  1  2  1  0  0  0
  1  3  1  0  0  0
  3  4  2  0  0  0
  3  5  1  0  0  0
  5  6  2  0  0  0
  6  7  1  0  0  0
  7  8  2  0  0  0
  8  9  1  0  0  0
  9 10  2  0  0  0
 10 11  1  0  0  0
 11 12  2  0  0  0
 11 13  1  0  0  0
 13 14  1  0  0  0
 14 15  1  0  0  0
 15 16  1  0  0  0
 16 17  1  0  0  0
 23 24  1  0  0  0
 24 25  1  0  0  0
 25 26  2  0  0  0
 26 27  1  0  0  0
 27 28  2  0  0  0
 28 29  1  0  0  0
 29 30  2  0  0  0
 30 22  1  0  0  0
 12  7  1  0  0  0
 30 25  1  0  0  0
 17 10  1  0  0  0
 14 18  1  0  0  0
 17 19  1  0  0  0
M  END
> <minimizedAffinity>
-7.46122

> <CNNscore>
0.1958708167

> <CNNaffinity>
6.0431714058

> <CNN_VS>
1.1836808920

> <CNNaffinity_variance>
0.3485211730

$$$$
[H]/C(C(=O)N(C([H])([H])[H])C([H])([H])c1sc2c([H])c([H])c([H])c([H])c2c1C([H])([H])[H])=C(/[H])c1c([H])nc2c(c1[H])C([H])([H])N([H])C([H])([H])C([H])([H])N2[H]


 30 33  0  0  0  0  0  0  0  0999 V2000
    3.8537  -47.6704  -22.6339 N   0  0  0  0  0  0  0  0  0  0  0  0
    5.2169  -48.0486  -22.8905 C   0  0  0  0  0  0  0  0  0  0  0  0
    3.2582  -46.7092  -23.5759 C   0  0  0  0  0  0  0  0  0  0  0  0
    2.2480  -46.0596  -23.3059 O   0  0  0  0  0  0  0  0  0  0  0  0
    3.8819  -46.5967  -24.8891 C   0  0  0  0  0  0  0  0  0  0  0  0
    3.0968  -46.9349  -25.9246 C   0  0  0  0  0  0  0  0  0  0  0  0
    3.5817  -46.8886  -27.3167 C   0  0  0  0  0  0  0  0  0  0  0  0
    2.7719  -46.3544  -28.2938 C   0  0  0  0  0  0  0  0  0  0  0  0
    3.0828  -46.4195  -29.6319 N   0  0  0  0  0  0  0  0  0  0  0  0
    4.2256  -47.0325  -29.9817 C   0  0  0  0  0  0  0  0  0  0  0  0
    5.0513  -47.5613  -29.0083 C   0  0  0  0  0  0  0  0  0  0  0  0
    4.7440  -47.4996  -27.6728 C   0  0  0  0  0  0  0  0  0  0  0  0
    6.3567  -48.2392  -29.3036 C   0  0  0  0  0  0  0  0  0  0  0  0
    5.9830  -49.3828  -30.0880 N   0  0  0  0  0  0  0  0  0  0  0  0
    5.8745  -49.2010  -31.4773 C   0  0  0  0  0  0  0  0  0  0  0  0
    5.3380  -47.9904  -32.0855 C   0  0  0  0  0  0  0  0  0  0  0  0
    4.4211  -47.1527  -31.4078 N   0  0  0  0  0  0  0  0  0  0  0  0
    5.1500  -49.8137  -29.6208 H   0  0  0  0  0  0  0  0  0  0  0  0
    3.7750  -46.5668  -31.9763 H   0  0  0  0  0  0  0  0  0  0  0  0
    3.0775  -48.0487  -21.5711 C   0  0  0  0  0  0  0  0  0  0  0  0
    2.1948  -50.2418  -23.6811 C   0  0  0  0  0  0  0  0  0  0  0  0
    1.7891  -50.2159  -22.1886 C   0  0  0  0  0  0  0  0  0  0  0  0
    2.0515  -49.0844  -21.4883 C   0  0  0  0  0  0  0  0  0  0  0  0
    1.2459  -49.4790  -19.9388 S   0  0  0  0  0  0  0  0  0  0  0  0
    0.6816  -51.0365  -20.3224 C   0  0  0  0  0  0  0  0  0  0  0  0
    0.0066  -52.0362  -19.6008 C   0  0  0  0  0  0  0  0  0  0  0  0
   -0.2780  -53.2567  -20.1574 C   0  0  0  0  0  0  0  0  0  0  0  0
    0.1417  -53.4235  -21.4656 C   0  0  0  0  0  0  0  0  0  0  0  0
    0.7866  -52.4771  -22.1603 C   0  0  0  0  0  0  0  0  0  0  0  0
    1.0977  -51.2141  -21.6047 C   0  0  0  0  0  0  0  0  0  0  0  0
 21 22  1  0  0  0
 22 23  2  0  0  0
 23 20  1  0  0  0
 20  1  1  0  0  0
  1  2  1  0  0  0
  1  3  1  0  0  0
  3  4  2  0  0  0
  3  5  1  0  0  0
  5  6  2  0  0  0
  6  7  1  0  0  0
  7  8  2  0  0  0
  8  9  1  0  0  0
  9 10  2  0  0  0
 10 11  1  0  0  0
 11 12  2  0  0  0
 11 13  1  0  0  0
 13 14  1  0  0  0
 14 15  1  0  0  0
 15 16  1  0  0  0
 16 17  1  0  0  0
 23 24  1  0  0  0
 24 25  1  0  0  0
 25 26  2  0  0  0
 26 27  1  0  0  0
 27 28  2  0  0  0
 28 29  1  0  0  0
 29 30  2  0  0  0
 30 22  1  0  0  0
 12  7  1  0  0  0
 30 25  1  0  0  0
 17 10  1  0  0  0
 14 18  1  0  0  0
 17 19  1  0  0  0
M  END
> <minimizedAffinity>
-6.59094

> <CNNscore>
0.1950705200

> <CNNaffinity>
5.3809294701

> <CNN_VS>
1.0496606827

> <CNNaffinity_variance>
0.1266753227

$$$$
[H]c1c([H])c([H])c(C([H])([H])N(C([H])([H])[H])C([H])([H])C([H])([H])OC(=O)C2=C(C([H])([H])[H])N=C(C([H])([H])[H])C([H])(C(=O)OC([H])([H])[H])C2([H])c2c([H])c([H])c([H])c([N+](=O)[O-])c2[H])c([H])c1[H]


 35 37  0  0  0  0  0  0  0  0999 V2000
    0.1513  -52.9399  -25.1445 C   0  0  0  0  0  0  0  0  0  0  0  0
    0.2331  -52.2794  -26.4513 C   0  0  0  0  0  0  0  0  0  0  0  0
   -0.9732  -52.4385  -27.3626 C   0  0  0  0  0  0  0  0  0  0  0  0
    1.2011  -51.6000  -26.8780 N   0  0  0  0  0  0  0  0  0  0  0  0
    2.3579  -51.4014  -26.0891 C   0  0  0  0  0  0  0  0  0  0  0  0
    3.4738  -50.5920  -26.6955 C   0  0  0  0  0  0  0  0  0  0  0  0
    2.4236  -51.9317  -24.8859 C   0  0  0  0  0  0  0  0  0  0  0  0
    1.3031  -52.7193  -24.2807 C   0  0  0  0  0  0  0  0  0  0  0  0
    0.9474  -52.0723  -22.9815 C   0  0  0  0  0  0  0  0  0  0  0  0
    1.2069  -50.7582  -22.7058 C   0  0  0  0  0  0  0  0  0  0  0  0
    0.8462  -50.1859  -21.5028 C   0  0  0  0  0  0  0  0  0  0  0  0
    0.2027  -50.9614  -20.5442 C   0  0  0  0  0  0  0  0  0  0  0  0
   -0.0642  -52.2937  -20.8149 C   0  0  0  0  0  0  0  0  0  0  0  0
    0.3128  -52.8307  -22.0319 C   0  0  0  0  0  0  0  0  0  0  0  0
   -0.7220  -53.0649  -19.8222 N   0  0  0  0  0  0  0  0  0  0  0  0
   -1.4699  -53.9847  -20.1889 O   0  0  0  0  0  0  0  0  0  0  0  0
   -0.5693  -52.8402  -18.4833 O   0  0  0  0  0  0  0  0  0  0  0  0
   -0.0769  -54.4052  -25.4445 C   0  0  0  0  0  0  0  0  0  0  0  0
    0.6690  -55.0495  -26.1814 O   0  0  0  0  0  0  0  0  0  0  0  0
   -1.1098  -55.4503  -23.5032 C   0  0  0  0  0  0  0  0  0  0  0  0
   -1.1667  -55.0151  -24.8582 O   0  0  0  0  0  0  0  0  0  0  0  0
    3.6123  -51.7321  -24.0722 C   0  0  0  0  0  0  0  0  0  0  0  0
    4.2754  -52.7862  -23.7383 O   0  0  0  0  0  0  0  0  0  0  0  0
    4.1434  -50.5554  -23.5981 O   0  0  0  0  0  0  0  0  0  0  0  0
    4.8298  -50.5897  -22.3348 C   0  0  0  0  0  0  0  0  0  0  0  0
    4.5743  -49.3952  -21.5068 C   0  0  0  0  0  0  0  0  0  0  0  0
    4.6706  -48.1163  -22.0837 N   0  0  0  0  0  0  0  0  0  0  0  0
    5.6631  -47.2201  -21.6926 C   0  0  0  0  0  0  0  0  0  0  0  0
    3.3610  -47.5303  -22.1651 C   0  0  0  0  0  0  0  0  0  0  0  0
    3.0733  -46.8512  -23.4433 C   0  0  0  0  0  0  0  0  0  0  0  0
    2.4439  -45.6240  -23.5442 C   0  0  0  0  0  0  0  0  0  0  0  0
    2.1935  -45.0229  -24.7589 C   0  0  0  0  0  0  0  0  0  0  0  0
    2.5845  -45.6679  -25.9162 C   0  0  0  0  0  0  0  0  0  0  0  0
    3.2129  -46.8913  -25.8360 C   0  0  0  0  0  0  0  0  0  0  0  0
    3.4493  -47.4656  -24.6210 C   0  0  0  0  0  0  0  0  0  0  0  0
 20 21  1  0  0  0
 21 18  1  0  0  0
 18 19  2  0  0  0
 18  1  1  0  0  0
  1  2  1  0  0  0
  2  3  1  0  0  0
  2  4  2  0  0  0
  4  5  1  0  0  0
  5  6  1  0  0  0
  5  7  2  0  0  0
  7 22  1  0  0  0
 22 23  2  0  0  0
 22 24  1  0  0  0
 24 25  1  0  0  0
 25 26  1  0  0  0
 26 27  1  0  0  0
 27 28  1  0  0  0
 27 29  1  0  0  0
 29 30  1  0  0  0
 30 31  2  0  0  0
 31 32  1  0  0  0
 32 33  2  0  0  0
 33 34  1  0  0  0
 34 35  2  0  0  0
  7  8  1  0  0  0
  8  9  1  0  0  0
  9 10  2  0  0  0
 10 11  1  0  0  0
 11 12  2  0  0  0
 12 13  1  0  0  0
 13 15  1  0  0  0
 15 16  2  0  0  0
 15 17  1  0  0  0
 13 14  2  0  0  0
  8  1  1  0  0  0
 14  9  1  0  0  0
 35 30  1  0  0  0
M  CHG 1  15   1
M  CHG 1  17  -1
M  END
> <minimizedAffinity>
-7.31394

> <CNNscore>
0.4921114445

> <CNNaffinity>
6.8006043434

> <CNN_VS>
3.3466551304

> <CNNaffinity_variance>
0.0468456373

$$$$
[H]c1c([H])c([H])c(C([H])([H])N(C([H])([H])[H])C([H])([H])C([H])([H])OC(=O)C2=C(C([H])([H])[H])N=C(C([H])([H])[H])C([H])(C(=O)OC([H])([H])[H])C2([H])c2c([H])c([H])c([H])c([N+](=O)[O-])c2[H])c([H])c1[H]


 35 37  0  0  0  0  0  0  0  0999 V2000
    0.7830  -52.7065  -25.1106 C   0  0  0  0  0  0  0  0  0  0  0  0
    0.0527  -53.8582  -24.5712 C   0  0  0  0  0  0  0  0  0  0  0  0
   -0.4265  -54.8857  -25.5838 C   0  0  0  0  0  0  0  0  0  0  0  0
   -0.2073  -54.0683  -23.3591 N   0  0  0  0  0  0  0  0  0  0  0  0
    0.2078  -53.1624  -22.3556 C   0  0  0  0  0  0  0  0  0  0  0  0
   -0.1704  -53.4888  -20.9348 C   0  0  0  0  0  0  0  0  0  0  0  0
    0.8815  -52.0826  -22.6923 C   0  0  0  0  0  0  0  0  0  0  0  0
    1.2712  -51.7732  -24.1045 C   0  0  0  0  0  0  0  0  0  0  0  0
    2.7552  -51.6002  -24.1351 C   0  0  0  0  0  0  0  0  0  0  0  0
    3.6316  -52.6376  -23.9741 C   0  0  0  0  0  0  0  0  0  0  0  0
    4.9974  -52.4468  -24.0287 C   0  0  0  0  0  0  0  0  0  0  0  0
    5.4992  -51.1692  -24.2528 C   0  0  0  0  0  0  0  0  0  0  0  0
    4.6187  -50.1121  -24.4170 C   0  0  0  0  0  0  0  0  0  0  0  0
    3.2571  -50.3435  -24.3556 C   0  0  0  0  0  0  0  0  0  0  0  0
    5.1538  -48.8180  -24.6450 N   0  0  0  0  0  0  0  0  0  0  0  0
    5.7856  -48.2707  -23.7278 O   0  0  0  0  0  0  0  0  0  0  0  0
    5.0044  -48.1488  -25.8266 O   0  0  0  0  0  0  0  0  0  0  0  0
   -0.1602  -52.0546  -26.0978 C   0  0  0  0  0  0  0  0  0  0  0  0
   -1.2925  -51.6895  -25.7828 O   0  0  0  0  0  0  0  0  0  0  0  0
   -0.0380  -52.8158  -28.4072 C   0  0  0  0  0  0  0  0  0  0  0  0
    0.2908  -51.8754  -27.3892 O   0  0  0  0  0  0  0  0  0  0  0  0
    1.3081  -51.1470  -21.6639 C   0  0  0  0  0  0  0  0  0  0  0  0
    0.7621  -49.9791  -21.6736 O   0  0  0  0  0  0  0  0  0  0  0  0
    2.2293  -51.3329  -20.6596 O   0  0  0  0  0  0  0  0  0  0  0  0
    3.5276  -50.7357  -20.8209 C   0  0  0  0  0  0  0  0  0  0  0  0
    3.9910  -50.0276  -19.6119 C   0  0  0  0  0  0  0  0  0  0  0  0
    4.4133  -48.6897  -19.7093 N   0  0  0  0  0  0  0  0  0  0  0  0
    5.3805  -48.1730  -18.8497 C   0  0  0  0  0  0  0  0  0  0  0  0
    3.2667  -47.8384  -19.8691 C   0  0  0  0  0  0  0  0  0  0  0  0
    3.3049  -46.9802  -21.0690 C   0  0  0  0  0  0  0  0  0  0  0  0
    2.7014  -47.3016  -22.2710 C   0  0  0  0  0  0  0  0  0  0  0  0
    2.7605  -46.4712  -23.3695 C   0  0  0  0  0  0  0  0  0  0  0  0
    3.4459  -45.2763  -23.2670 C   0  0  0  0  0  0  0  0  0  0  0  0
    4.0537  -44.9386  -22.0776 C   0  0  0  0  0  0  0  0  0  0  0  0
    3.9808  -45.7782  -21.0044 C   0  0  0  0  0  0  0  0  0  0  0  0
 20 21  1  0  0  0
 21 18  1  0  0  0
 18 19  2  0  0  0
 18  1  1  0  0  0
  1  2  1  0  0  0
  2  3  1  0  0  0
  2  4  2  0  0  0
  4  5  1  0  0  0
  5  6  1  0  0  0
  5  7  2  0  0  0
  7 22  1  0  0  0
 22 23  2  0  0  0
 22 24  1  0  0  0
 24 25  1  0  0  0
 25 26  1  0  0  0
 26 27  1  0  0  0
 27 28  1  0  0  0
 27 29  1  0  0  0
 29 30  1  0  0  0
 30 31  2  0  0  0
 31 32  1  0  0  0
 32 33  2  0  0  0
 33 34  1  0  0  0
 34 35  2  0  0  0
  7  8  1  0  0  0
  8  9  1  0  0  0
  9 10  2  0  0  0
 10 11  1  0  0  0
 11 12  2  0  0  0
 12 13  1  0  0  0
 13 15  1  0  0  0
 15 16  2  0  0  0
 15 17  1  0  0  0
 13 14  2  0  0  0
  8  1  1  0  0  0
 14  9  1  0  0  0
 35 30  1  0  0  0
M  CHG 1  15   1
M  CHG 1  17  -1
M  END
> <minimizedAffinity>
-6.14334

> <CNNscore>
0.4154405892

> <CNNaffinity>
6.5901136398

> <CNN_VS>
2.7378005981

> <CNNaffinity_variance>
0.1765731275

$$$$
[H]c1c([H])c([H])c(C([H])([H])N(C([H])([H])[H])C([H])([H])C([H])([H])OC(=O)C2=C(C([H])([H])[H])N=C(C([H])([H])[H])C([H])(C(=O)OC([H])([H])[H])C2([H])c2c([H])c([H])c([H])c([N+](=O)[O-])c2[H])c([H])c1[H]


 35 37  0  0  0  0  0  0  0  0999 V2000
    0.4570  -53.0428  -25.7744 C   0  0  0  0  0  0  0  0  0  0  0  0
   -0.0566  -54.4141  -25.6931 C   0  0  0  0  0  0  0  0  0  0  0  0
    0.0130  -55.2356  -26.9702 C   0  0  0  0  0  0  0  0  0  0  0  0
   -0.5420  -54.9634  -24.6717 N   0  0  0  0  0  0  0  0  0  0  0  0
   -0.6374  -54.2678  -23.4441 C   0  0  0  0  0  0  0  0  0  0  0  0
   -1.2541  -55.0024  -22.2831 C   0  0  0  0  0  0  0  0  0  0  0  0
   -0.2078  -53.0259  -23.3651 C   0  0  0  0  0  0  0  0  0  0  0  0
    0.4221  -52.3071  -24.5177 C   0  0  0  0  0  0  0  0  0  0  0  0
    1.7698  -51.8379  -24.0744 C   0  0  0  0  0  0  0  0  0  0  0  0
    2.8634  -52.6568  -24.0145 C   0  0  0  0  0  0  0  0  0  0  0  0
    4.0996  -52.1864  -23.6203 C   0  0  0  0  0  0  0  0  0  0  0  0
    4.2410  -50.8467  -23.2745 C   0  0  0  0  0  0  0  0  0  0  0  0
    3.1384  -50.0096  -23.3322 C   0  0  0  0  0  0  0  0  0  0  0  0
    1.9167  -50.5185  -23.7320 C   0  0  0  0  0  0  0  0  0  0  0  0
    3.3070  -48.6469  -22.9753 N   0  0  0  0  0  0  0  0  0  0  0  0
    4.4133  -48.1188  -23.1682 O   0  0  0  0  0  0  0  0  0  0  0  0
    2.3078  -47.8918  -22.4295 O   0  0  0  0  0  0  0  0  0  0  0  0
   -0.3513  -52.3711  -26.8628 C   0  0  0  0  0  0  0  0  0  0  0  0
   -1.5147  -52.0091  -26.6895 O   0  0  0  0  0  0  0  0  0  0  0  0
   -0.3330  -52.6577  -29.2805 C   0  0  0  0  0  0  0  0  0  0  0  0
    0.2621  -52.1697  -28.0820 O   0  0  0  0  0  0  0  0  0  0  0  0
   -0.3063  -52.3059  -22.1054 C   0  0  0  0  0  0  0  0  0  0  0  0
   -1.3115  -51.5110  -21.9638 O   0  0  0  0  0  0  0  0  0  0  0  0
    0.5358  -52.3526  -21.0190 O   0  0  0  0  0  0  0  0  0  0  0  0
    0.3545  -51.3682  -19.9864 C   0  0  0  0  0  0  0  0  0  0  0  0
   -0.1668  -51.9397  -18.7297 C   0  0  0  0  0  0  0  0  0  0  0  0
   -0.0879  -51.1922  -17.5411 N   0  0  0  0  0  0  0  0  0  0  0  0
    1.0605  -50.4741  -17.2141 C   0  0  0  0  0  0  0  0  0  0  0  0
   -0.6136  -51.9700  -16.4532 C   0  0  0  0  0  0  0  0  0  0  0  0
   -2.0146  -51.6647  -16.1042 C   0  0  0  0  0  0  0  0  0  0  0  0
   -3.0909  -52.4600  -16.4527 C   0  0  0  0  0  0  0  0  0  0  0  0
   -4.3858  -52.1388  -16.1067 C   0  0  0  0  0  0  0  0  0  0  0  0
   -4.6174  -50.9828  -15.3869 C   0  0  0  0  0  0  0  0  0  0  0  0
   -3.5578  -50.1776  -15.0305 C   0  0  0  0  0  0  0  0  0  0  0  0
   -2.2849  -50.5175  -15.3853 C   0  0  0  0  0  0  0  0  0  0  0  0
 20 21  1  0  0  0
 21 18  1  0  0  0
 18 19  2  0  0  0
 18  1  1  0  0  0
  1  2  1  0  0  0
  2  3  1  0  0  0
  2  4  2  0  0  0
  4  5  1  0  0  0
  5  6  1  0  0  0
  5  7  2  0  0  0
  7 22  1  0  0  0
 22 23  2  0  0  0
 22 24  1  0  0  0
 24 25  1  0  0  0
 25 26  1  0  0  0
 26 27  1  0  0  0
 27 28  1  0  0  0
 27 29  1  0  0  0
 29 30  1  0  0  0
 30 31  2  0  0  0
 31 32  1  0  0  0
 32 33  2  0  0  0
 33 34  1  0  0  0
 34 35  2  0  0  0
  7  8  1  0  0  0
  8  9  1  0  0  0
  9 10  2  0  0  0
 10 11  1  0  0  0
 11 12  2  0  0  0
 12 13  1  0  0  0
 13 15  1  0  0  0
 15 16  2  0  0  0
 15 17  1  0  0  0
 13 14  2  0  0  0
  8  1  1  0  0  0
 14  9  1  0  0  0
 35 30  1  0  0  0
M  CHG 1  15   1
M  CHG 1  17  -1
M  END
> <minimizedAffinity>
-7.86340

> <CNNscore>
0.3222260773

> <CNNaffinity>
6.4552755356

> <CNN_VS>
2.0800580978

> <CNNaffinity_variance>
0.3974124789

$$$$
[H]c1c([H])c([H])c(C([H])([H])N(C([H])([H])[H])C([H])([H])C([H])([H])OC(=O)C2=C(C([H])([H])[H])N=C(C([H])([H])[H])C([H])(C(=O)OC([H])([H])[H])C2([H])c2c([H])c([H])c([H])c([N+](=O)[O-])c2[H])c([H])c1[H]


 35 37  0  0  0  0  0  0  0  0999 V2000
    0.1111  -52.2663  -23.7806 C   0  0  0  0  0  0  0  0  0  0  0  0
   -0.0612  -51.9915  -25.2108 C   0  0  0  0  0  0  0  0  0  0  0  0
   -1.4789  -52.0937  -25.7499 C   0  0  0  0  0  0  0  0  0  0  0  0
    0.8497  -51.6811  -26.0200 N   0  0  0  0  0  0  0  0  0  0  0  0
    2.1935  -51.5612  -25.5958 C   0  0  0  0  0  0  0  0  0  0  0  0
    3.2165  -51.2074  -26.6428 C   0  0  0  0  0  0  0  0  0  0  0  0
    2.4983  -51.7731  -24.3328 C   0  0  0  0  0  0  0  0  0  0  0  0
    1.4740  -52.1058  -23.2925 C   0  0  0  0  0  0  0  0  0  0  0  0
    1.5916  -51.0900  -22.2029 C   0  0  0  0  0  0  0  0  0  0  0  0
    1.3881  -49.7526  -22.4034 C   0  0  0  0  0  0  0  0  0  0  0  0
    1.4841  -48.8426  -21.3701 C   0  0  0  0  0  0  0  0  0  0  0  0
    1.7955  -49.2928  -20.0915 C   0  0  0  0  0  0  0  0  0  0  0  0
    2.0034  -50.6460  -19.8791 C   0  0  0  0  0  0  0  0  0  0  0  0
    1.8983  -51.5264  -20.9399 C   0  0  0  0  0  0  0  0  0  0  0  0
    2.3194  -51.0818  -18.5664 N   0  0  0  0  0  0  0  0  0  0  0  0
    1.4065  -51.1384  -17.7277 O   0  0  0  0  0  0  0  0  0  0  0  0
    3.5812  -51.4408  -18.1853 O   0  0  0  0  0  0  0  0  0  0  0  0
   -0.4194  -53.6676  -23.5703 C   0  0  0  0  0  0  0  0  0  0  0  0
   -0.4281  -54.5091  -24.4683 O   0  0  0  0  0  0  0  0  0  0  0  0
   -1.4549  -52.9767  -21.4779 C   0  0  0  0  0  0  0  0  0  0  0  0
   -0.9039  -53.9860  -22.3184 O   0  0  0  0  0  0  0  0  0  0  0  0
    3.8792  -51.6534  -23.8928 C   0  0  0  0  0  0  0  0  0  0  0  0
    4.5188  -52.7506  -23.6702 O   0  0  0  0  0  0  0  0  0  0  0  0
    4.6180  -50.5137  -23.6763 O   0  0  0  0  0  0  0  0  0  0  0  0
    5.1535  -50.3012  -22.3586 C   0  0  0  0  0  0  0  0  0  0  0  0
    5.1498  -48.8814  -21.9564 C   0  0  0  0  0  0  0  0  0  0  0  0
    5.2575  -47.8807  -22.9386 N   0  0  0  0  0  0  0  0  0  0  0  0
    6.4337  -47.1517  -23.1013 C   0  0  0  0  0  0  0  0  0  0  0  0
    4.0712  -47.0700  -22.9252 C   0  0  0  0  0  0  0  0  0  0  0  0
    3.5134  -46.7802  -24.2603 C   0  0  0  0  0  0  0  0  0  0  0  0
    2.9333  -45.5755  -24.6130 C   0  0  0  0  0  0  0  0  0  0  0  0
    2.4236  -45.3447  -25.8726 C   0  0  0  0  0  0  0  0  0  0  0  0
    2.4942  -46.3512  -26.8160 C   0  0  0  0  0  0  0  0  0  0  0  0
    3.0686  -47.5585  -26.4835 C   0  0  0  0  0  0  0  0  0  0  0  0
    3.5660  -47.7622  -25.2293 C   0  0  0  0  0  0  0  0  0  0  0  0
 20 21  1  0  0  0
 21 18  1  0  0  0
 18 19  2  0  0  0
 18  1  1  0  0  0
  1  2  1  0  0  0
  2  3  1  0  0  0
  2  4  2  0  0  0
  4  5  1  0  0  0
  5  6  1  0  0  0
  5  7  2  0  0  0
  7 22  1  0  0  0
 22 23  2  0  0  0
 22 24  1  0  0  0
 24 25  1  0  0  0
 25 26  1  0  0  0
 26 27  1  0  0  0
 27 28  1  0  0  0
 27 29  1  0  0  0
 29 30  1  0  0  0
 30 31  2  0  0  0
 31 32  1  0  0  0
 32 33  2  0  0  0
 33 34  1  0  0  0
 34 35  2  0  0  0
  7  8  1  0  0  0
  8  9  1  0  0  0
  9 10  2  0  0  0
 10 11  1  0  0  0
 11 12  2  0  0  0
 12 13  1  0  0  0
 13 15  1  0  0  0
 15 16  2  0  0  0
 15 17  1  0  0  0
 13 14  2  0  0  0
  8  1  1  0  0  0
 14  9  1  0  0  0
 35 30  1  0  0  0
M  CHG 1  15   1
M  CHG 1  17  -1
M  END
> <minimizedAffinity>
-6.52571

> <CNNscore>
0.2856253386

> <CNNaffinity>
6.3928189278

> <CNN_VS>
1.8259510994

> <CNNaffinity_variance>
0.2764025331

$$$$
[H]c1c([H])c([H])c(C([H])([H])N(C([H])([H])[H])C([H])([H])C([H])([H])OC(=O)C2=C(C([H])([H])[H])N=C(C([H])([H])[H])C([H])(C(=O)OC([H])([H])[H])C2([H])c2c([H])c([H])c([H])c([N+](=O)[O-])c2[H])c([H])c1[H]


 35 37  0  0  0  0  0  0  0  0999 V2000
    0.4795  -52.7947  -25.0374 C   0  0  0  0  0  0  0  0  0  0  0  0
   -0.0894  -54.1204  -24.7737 C   0  0  0  0  0  0  0  0  0  0  0  0
   -0.1886  -55.0594  -25.9650 C   0  0  0  0  0  0  0  0  0  0  0  0
   -0.4961  -54.5437  -23.6618 N   0  0  0  0  0  0  0  0  0  0  0  0
   -0.4337  -53.7329  -22.5047 C   0  0  0  0  0  0  0  0  0  0  0  0
   -0.9657  -54.3197  -21.2238 C   0  0  0  0  0  0  0  0  0  0  0  0
    0.0617  -52.5161  -22.5889 C   0  0  0  0  0  0  0  0  0  0  0  0
    0.6069  -51.9450  -23.8612 C   0  0  0  0  0  0  0  0  0  0  0  0
    2.0135  -51.5158  -23.5965 C   0  0  0  0  0  0  0  0  0  0  0  0
    3.0452  -52.3982  -23.4316 C   0  0  0  0  0  0  0  0  0  0  0  0
    4.3376  -51.9679  -23.2090 C   0  0  0  0  0  0  0  0  0  0  0  0
    4.6016  -50.6036  -23.1502 C   0  0  0  0  0  0  0  0  0  0  0  0
    3.5625  -49.7023  -23.3161 C   0  0  0  0  0  0  0  0  0  0  0  0
    2.2813  -50.1725  -23.5371 C   0  0  0  0  0  0  0  0  0  0  0  0
    3.8560  -48.3157  -23.2525 N   0  0  0  0  0  0  0  0  0  0  0  0
    3.9950  -47.7925  -22.1358 O   0  0  0  0  0  0  0  0  0  0  0  0
    3.9917  -47.5323  -24.3634 O   0  0  0  0  0  0  0  0  0  0  0  0
   -0.4003  -52.1809  -26.1043 C   0  0  0  0  0  0  0  0  0  0  0  0
   -1.5356  -51.7707  -25.8646 O   0  0  0  0  0  0  0  0  0  0  0  0
   -0.6563  -52.5148  -28.5023 C   0  0  0  0  0  0  0  0  0  0  0  0
    0.1133  -52.0903  -27.3815 O   0  0  0  0  0  0  0  0  0  0  0  0
    0.1253  -51.6780  -21.4022 C   0  0  0  0  0  0  0  0  0  0  0  0
   -0.3559  -50.4860  -21.5021 O   0  0  0  0  0  0  0  0  0  0  0  0
    0.6349  -51.9805  -20.1610 O   0  0  0  0  0  0  0  0  0  0  0  0
    2.0638  -52.0693  -20.0255 C   0  0  0  0  0  0  0  0  0  0  0  0
    2.7027  -50.7614  -19.7833 C   0  0  0  0  0  0  0  0  0  0  0  0
    2.0522  -49.8085  -18.9792 N   0  0  0  0  0  0  0  0  0  0  0  0
    2.2792  -48.4443  -19.1485 C   0  0  0  0  0  0  0  0  0  0  0  0
    2.0911  -50.2360  -17.6078 C   0  0  0  0  0  0  0  0  0  0  0  0
    0.7907  -50.1793  -16.9125 C   0  0  0  0  0  0  0  0  0  0  0  0
    0.2809  -49.0417  -16.3141 C   0  0  0  0  0  0  0  0  0  0  0  0
   -0.9396  -49.0307  -15.6739 C   0  0  0  0  0  0  0  0  0  0  0  0
   -1.6800  -50.1960  -15.6282 C   0  0  0  0  0  0  0  0  0  0  0  0
   -1.1888  -51.3397  -16.2187 C   0  0  0  0  0  0  0  0  0  0  0  0
    0.0227  -51.3246  -16.8463 C   0  0  0  0  0  0  0  0  0  0  0  0
 20 21  1  0  0  0
 21 18  1  0  0  0
 18 19  2  0  0  0
 18  1  1  0  0  0
  1  2  1  0  0  0
  2  3  1  0  0  0
  2  4  2  0  0  0
  4  5  1  0  0  0
  5  6  1  0  0  0
  5  7  2  0  0  0
  7 22  1  0  0  0
 22 23  2  0  0  0
 22 24  1  0  0  0
 24 25  1  0  0  0
 25 26  1  0  0  0
 26 27  1  0  0  0
 27 28  1  0  0  0
 27 29  1  0  0  0
 29 30  1  0  0  0
 30 31  2  0  0  0
 31 32  1  0  0  0
 32 33  2  0  0  0
 33 34  1  0  0  0
 34 35  2  0  0  0
  7  8  1  0  0  0
  8  9  1  0  0  0
  9 10  2  0  0  0
 10 11  1  0  0  0
 11 12  2  0  0  0
 12 13  1  0  0  0
 13 15  1  0  0  0
 15 16  2  0  0  0
 15 17  1  0  0  0
 13 14  2  0  0  0
  8  1  1  0  0  0
 14  9  1  0  0  0
 35 30  1  0  0  0
M  CHG 1  15   1
M  CHG 1  17  -1
M  END
> <minimizedAffinity>
-6.93230

> <CNNscore>
0.2787127793

> <CNNaffinity>
6.3742804527

> <CNN_VS>
1.7765934467

> <CNNaffinity_variance>
0.2422664165

$$$$
[H]c1c([H])c([H])c(C([H])([H])N(C([H])([H])[H])C([H])([H])C([H])([H])OC(=O)C2=C(C([H])([H])[H])N=C(C([H])([H])[H])C([H])(C(=O)OC([H])([H])[H])C2([H])c2c([H])c([H])c([H])c([N+](=O)[O-])c2[H])c([H])c1[H]


 35 37  0  0  0  0  0  0  0  0999 V2000
    0.3192  -52.7657  -25.1810 C   0  0  0  0  0  0  0  0  0  0  0  0
   -0.0783  -54.0750  -24.6532 C   0  0  0  0  0  0  0  0  0  0  0  0
   -0.4190  -55.1405  -25.6825 C   0  0  0  0  0  0  0  0  0  0  0  0
   -0.1596  -54.3899  -23.4387 N   0  0  0  0  0  0  0  0  0  0  0  0
    0.1450  -53.4569  -22.4205 C   0  0  0  0  0  0  0  0  0  0  0  0
   -0.0037  -53.9207  -20.9954 C   0  0  0  0  0  0  0  0  0  0  0  0
    0.5243  -52.2391  -22.7463 C   0  0  0  0  0  0  0  0  0  0  0  0
    0.6888  -51.7896  -24.1651 C   0  0  0  0  0  0  0  0  0  0  0  0
    2.0863  -51.2831  -24.3184 C   0  0  0  0  0  0  0  0  0  0  0  0
    2.3795  -49.9909  -24.6567 C   0  0  0  0  0  0  0  0  0  0  0  0
    3.6824  -49.5498  -24.7697 C   0  0  0  0  0  0  0  0  0  0  0  0
    4.7262  -50.4385  -24.5346 C   0  0  0  0  0  0  0  0  0  0  0  0
    4.4385  -51.7496  -24.1914 C   0  0  0  0  0  0  0  0  0  0  0  0
    3.1203  -52.1535  -24.0881 C   0  0  0  0  0  0  0  0  0  0  0  0
    5.5195  -52.6377  -23.9558 N   0  0  0  0  0  0  0  0  0  0  0  0
    6.4985  -52.5908  -24.7170 O   0  0  0  0  0  0  0  0  0  0  0  0
    5.5307  -53.5407  -22.9306 O   0  0  0  0  0  0  0  0  0  0  0  0
   -0.8412  -52.3036  -26.0349 C   0  0  0  0  0  0  0  0  0  0  0  0
   -1.9995  -52.2911  -25.6192 O   0  0  0  0  0  0  0  0  0  0  0  0
   -0.7081  -52.7824  -28.4183 C   0  0  0  0  0  0  0  0  0  0  0  0
   -0.5623  -51.8871  -27.3202 O   0  0  0  0  0  0  0  0  0  0  0  0
    0.8359  -51.2757  -21.7025 C   0  0  0  0  0  0  0  0  0  0  0  0
    1.8830  -51.5076  -20.9870 O   0  0  0  0  0  0  0  0  0  0  0  0
    0.1606  -50.1270  -21.3617 O   0  0  0  0  0  0  0  0  0  0  0  0
    0.9084  -48.8998  -21.3076 C   0  0  0  0  0  0  0  0  0  0  0  0
    1.4645  -48.6217  -19.9693 C   0  0  0  0  0  0  0  0  0  0  0  0
    2.8140  -48.2472  -19.8416 N   0  0  0  0  0  0  0  0  0  0  0  0
    3.2210  -47.3303  -18.8747 C   0  0  0  0  0  0  0  0  0  0  0  0
    3.3643  -47.9965  -21.1451 C   0  0  0  0  0  0  0  0  0  0  0  0
    4.7009  -48.5812  -21.3673 C   0  0  0  0  0  0  0  0  0  0  0  0
    5.7486  -47.9117  -21.9728 C   0  0  0  0  0  0  0  0  0  0  0  0
    6.9833  -48.4944  -22.1616 C   0  0  0  0  0  0  0  0  0  0  0  0
    7.1821  -49.7919  -21.7314 C   0  0  0  0  0  0  0  0  0  0  0  0
    6.1503  -50.4752  -21.1259 C   0  0  0  0  0  0  0  0  0  0  0  0
    4.9369  -49.8760  -20.9507 C   0  0  0  0  0  0  0  0  0  0  0  0
 20 21  1  0  0  0
 21 18  1  0  0  0
 18 19  2  0  0  0
 18  1  1  0  0  0
  1  2  1  0  0  0
  2  3  1  0  0  0
  2  4  2  0  0  0
  4  5  1  0  0  0
  5  6  1  0  0  0
  5  7  2  0  0  0
  7 22  1  0  0  0
 22 23  2  0  0  0
 22 24  1  0  0  0
 24 25  1  0  0  0
 25 26  1  0  0  0
 26 27  1  0  0  0
 27 28  1  0  0  0
 27 29  1  0  0  0
 29 30  1  0  0  0
 30 31  2  0  0  0
 31 32  1  0  0  0
 32 33  2  0  0  0
 33 34  1  0  0  0
 34 35  2  0  0  0
  7  8  1  0  0  0
  8  9  1  0  0  0
  9 10  2  0  0  0
 10 11  1  0  0  0
 11 12  2  0  0  0
 12 13  1  0  0  0
 13 15  1  0  0  0
 15 16  2  0  0  0
 15 17  1  0  0  0
 13 14  2  0  0  0
  8  1  1  0  0  0
 14  9  1  0  0  0
 35 30  1  0  0  0
M  CHG 1  15   1
M  CHG 1  17  -1
M  END
> <minimizedAffinity>
-5.42584

> <CNNscore>
0.2563446462

> <CNNaffinity>
6.3814520836

> <CNN_VS>
1.6358510256

> <CNNaffinity_variance>
0.0959745273

$$$$
[H]c1c([H])c([H])c(C([H])([H])N(C([H])([H])[H])C([H])([H])C([H])([H])OC(=O)C2=C(C([H])([H])[H])N=C(C([H])([H])[H])C([H])(C(=O)OC([H])([H])[H])C2([H])c2c([H])c([H])c([H])c([N+](=O)[O-])c2[H])c([H])c1[H]


 35 37  0  0  0  0  0  0  0  0999 V2000
    2.0850  -50.9554  -22.3724 C   0  0  0  0  0  0  0  0  0  0  0  0
    3.2901  -51.5226  -21.7586 C   0  0  0  0  0  0  0  0  0  0  0  0
    3.3155  -51.5647  -20.2393 C   0  0  0  0  0  0  0  0  0  0  0  0
    4.2913  -51.9728  -22.3716 N   0  0  0  0  0  0  0  0  0  0  0  0
    4.3427  -51.9733  -23.7849 C   0  0  0  0  0  0  0  0  0  0  0  0
    5.5934  -52.5126  -24.4277 C   0  0  0  0  0  0  0  0  0  0  0  0
    3.3255  -51.4992  -24.4730 C   0  0  0  0  0  0  0  0  0  0  0  0
    2.0767  -50.9820  -23.8287 C   0  0  0  0  0  0  0  0  0  0  0  0
    0.9261  -51.7489  -24.3954 C   0  0  0  0  0  0  0  0  0  0  0  0
    0.2434  -51.3543  -25.5127 C   0  0  0  0  0  0  0  0  0  0  0  0
   -0.8022  -52.0971  -26.0225 C   0  0  0  0  0  0  0  0  0  0  0  0
   -1.1740  -53.2771  -25.3870 C   0  0  0  0  0  0  0  0  0  0  0  0
   -0.4879  -53.6846  -24.2543 C   0  0  0  0  0  0  0  0  0  0  0  0
    0.5540  -52.9130  -23.7742 C   0  0  0  0  0  0  0  0  0  0  0  0
   -0.8848  -54.8918  -23.6234 N   0  0  0  0  0  0  0  0  0  0  0  0
   -1.0320  -55.9041  -24.3259 O   0  0  0  0  0  0  0  0  0  0  0  0
   -1.1119  -54.9893  -22.2798 O   0  0  0  0  0  0  0  0  0  0  0  0
    1.9689  -49.5529  -21.8169 C   0  0  0  0  0  0  0  0  0  0  0  0
    2.7294  -48.6464  -22.1554 O   0  0  0  0  0  0  0  0  0  0  0  0
   -0.0143  -50.3039  -20.6208 C   0  0  0  0  0  0  0  0  0  0  0  0
    0.9664  -49.3097  -20.9008 O   0  0  0  0  0  0  0  0  0  0  0  0
    3.3753  -51.4953  -25.9264 C   0  0  0  0  0  0  0  0  0  0  0  0
    3.3362  -52.6415  -26.5154 O   0  0  0  0  0  0  0  0  0  0  0  0
    3.4586  -50.4218  -26.7821 O   0  0  0  0  0  0  0  0  0  0  0  0
    3.5667  -49.1094  -26.2039 C   0  0  0  0  0  0  0  0  0  0  0  0
    4.9381  -48.5671  -26.2563 C   0  0  0  0  0  0  0  0  0  0  0  0
    5.1864  -47.3717  -26.9543 N   0  0  0  0  0  0  0  0  0  0  0  0
    6.2626  -46.5515  -26.6225 C   0  0  0  0  0  0  0  0  0  0  0  0
    3.9510  -46.6606  -27.1360 C   0  0  0  0  0  0  0  0  0  0  0  0
    3.5073  -46.5544  -28.5394 C   0  0  0  0  0  0  0  0  0  0  0  0
    4.1707  -47.1300  -29.6076 C   0  0  0  0  0  0  0  0  0  0  0  0
    3.7225  -47.0071  -30.9051 C   0  0  0  0  0  0  0  0  0  0  0  0
    2.5707  -46.2842  -31.1479 C   0  0  0  0  0  0  0  0  0  0  0  0
    1.8958  -45.7033  -30.0966 C   0  0  0  0  0  0  0  0  0  0  0  0
    2.3602  -45.8395  -28.8209 C   0  0  0  0  0  0  0  0  0  0  0  0
 20 21  1  0  0  0
 21 18  1  0  0  0
 18 19  2  0  0  0
 18  1  1  0  0  0
  1  2  1  0  0  0
  2  3  1  0  0  0
  2  4  2  0  0  0
  4  5  1  0  0  0
  5  6  1  0  0  0
  5  7  2  0  0  0
  7 22  1  0  0  0
 22 23  2  0  0  0
 22 24  1  0  0  0
 24 25  1  0  0  0
 25 26  1  0  0  0
 26 27  1  0  0  0
 27 28  1  0  0  0
 27 29  1  0  0  0
 29 30  1  0  0  0
 30 31  2  0  0  0
 31 32  1  0  0  0
 32 33  2  0  0  0
 33 34  1  0  0  0
 34 35  2  0  0  0
  7  8  1  0  0  0
  8  9  1  0  0  0
  9 10  2  0  0  0
 10 11  1  0  0  0
 11 12  2  0  0  0
 12 13  1  0  0  0
 13 15  1  0  0  0
 15 16  2  0  0  0
 15 17  1  0  0  0
 13 14  2  0  0  0
  8  1  1  0  0  0
 14  9  1  0  0  0
 35 30  1  0  0  0
M  CHG 1  15   1
M  CHG 1  17  -1
M  END
> <minimizedAffinity>
-6.99158

> <CNNscore>
0.2343263924

> <CNNaffinity>
6.0700492859

> <CNN_VS>
1.4223726988

> <CNNaffinity_variance>
0.2185988426

$$$$
[H]c1c([H])c([H])c(C([H])([H])N(C([H])([H])[H])C([H])([H])C([H])([H])OC(=O)C2=C(C([H])([H])[H])N=C(C([H])([H])[H])C([H])(C(=O)OC([H])([H])[H])C2([H])c2c([H])c([H])c([H])c([N+](=O)[O-])c2[H])c([H])c1[H]


 35 37  0  0  0  0  0  0  0  0999 V2000
    1.9931  -51.2320  -25.0699 C   0  0  0  0  0  0  0  0  0  0  0  0
    2.9215  -52.0055  -25.9009 C   0  0  0  0  0  0  0  0  0  0  0  0
    2.4905  -52.2565  -27.3368 C   0  0  0  0  0  0  0  0  0  0  0  0
    4.0300  -52.4722  -25.5344 N   0  0  0  0  0  0  0  0  0  0  0  0
    4.5041  -52.2782  -24.2162 C   0  0  0  0  0  0  0  0  0  0  0  0
    5.8326  -52.8946  -23.8651 C   0  0  0  0  0  0  0  0  0  0  0  0
    3.7773  -51.5944  -23.3575 C   0  0  0  0  0  0  0  0  0  0  0  0
    2.4661  -50.9676  -23.7179 C   0  0  0  0  0  0  0  0  0  0  0  0
    2.5618  -49.5098  -23.4040 C   0  0  0  0  0  0  0  0  0  0  0  0
    1.9981  -48.9465  -22.2926 C   0  0  0  0  0  0  0  0  0  0  0  0
    2.1230  -47.5990  -22.0212 C   0  0  0  0  0  0  0  0  0  0  0  0
    2.8392  -46.7903  -22.8972 C   0  0  0  0  0  0  0  0  0  0  0  0
    3.4138  -47.3524  -24.0257 C   0  0  0  0  0  0  0  0  0  0  0  0
    3.2663  -48.7065  -24.2631 C   0  0  0  0  0  0  0  0  0  0  0  0
    4.1400  -46.5079  -24.9046 N   0  0  0  0  0  0  0  0  0  0  0  0
    4.3870  -46.9198  -26.0488 O   0  0  0  0  0  0  0  0  0  0  0  0
    4.5789  -45.2643  -24.5479 O   0  0  0  0  0  0  0  0  0  0  0  0
    0.6922  -52.0046  -25.0890 C   0  0  0  0  0  0  0  0  0  0  0  0
    0.6008  -53.1494  -24.6468 O   0  0  0  0  0  0  0  0  0  0  0  0
   -1.4713  -52.1447  -26.1966 C   0  0  0  0  0  0  0  0  0  0  0  0
   -0.4140  -51.3795  -25.6264 O   0  0  0  0  0  0  0  0  0  0  0  0
    4.2597  -51.3947  -22.0002 C   0  0  0  0  0  0  0  0  0  0  0  0
    5.4174  -50.8431  -21.8669 O   0  0  0  0  0  0  0  0  0  0  0  0
    3.6453  -51.7154  -20.8123 O   0  0  0  0  0  0  0  0  0  0  0  0
    3.9767  -50.9323  -19.6525 C   0  0  0  0  0  0  0  0  0  0  0  0
    2.9872  -51.0639  -18.5656 C   0  0  0  0  0  0  0  0  0  0  0  0
    1.7961  -50.3179  -18.6161 N   0  0  0  0  0  0  0  0  0  0  0  0
    1.7213  -49.0383  -18.0700 C   0  0  0  0  0  0  0  0  0  0  0  0
    0.6890  -51.1634  -18.2637 C   0  0  0  0  0  0  0  0  0  0  0  0
    0.0338  -51.8226  -19.4099 C   0  0  0  0  0  0  0  0  0  0  0  0
    0.0040  -51.3011  -20.6904 C   0  0  0  0  0  0  0  0  0  0  0  0
   -0.6194  -51.9493  -21.7348 C   0  0  0  0  0  0  0  0  0  0  0  0
   -1.2360  -53.1620  -21.4952 C   0  0  0  0  0  0  0  0  0  0  0  0
   -1.2169  -53.6976  -20.2260 C   0  0  0  0  0  0  0  0  0  0  0  0
   -0.5931  -53.0360  -19.2087 C   0  0  0  0  0  0  0  0  0  0  0  0
 20 21  1  0  0  0
 21 18  1  0  0  0
 18 19  2  0  0  0
 18  1  1  0  0  0
  1  2  1  0  0  0
  2  3  1  0  0  0
  2  4  2  0  0  0
  4  5  1  0  0  0
  5  6  1  0  0  0
  5  7  2  0  0  0
  7 22  1  0  0  0
 22 23  2  0  0  0
 22 24  1  0  0  0
 24 25  1  0  0  0
 25 26  1  0  0  0
 26 27  1  0  0  0
 27 28  1  0  0  0
 27 29  1  0  0  0
 29 30  1  0  0  0
 30 31  2  0  0  0
 31 32  1  0  0  0
 32 33  2  0  0  0
 33 34  1  0  0  0
 34 35  2  0  0  0
  7  8  1  0  0  0
  8  9  1  0  0  0
  9 10  2  0  0  0
 10 11  1  0  0  0
 11 12  2  0  0  0
 12 13  1  0  0  0
 13 15  1  0  0  0
 15 16  2  0  0  0
 15 17  1  0  0  0
 13 14  2  0  0  0
  8  1  1  0  0  0
 14  9  1  0  0  0
 35 30  1  0  0  0
M  CHG 1  15   1
M  CHG 1  17  -1
M  END
> <minimizedAffinity>
-6.83277

> <CNNscore>
0.2337397635

> <CNNaffinity>
6.0883564949

> <CNN_VS>
1.4230910540

> <CNNaffinity_variance>
0.5830558538

$$$$
[H]c1c([H])c([H])c(C([H])([H])N(C([H])([H])[H])C([H])([H])C([H])([H])OC(=O)C2=C(C([H])([H])[H])N=C(C([H])([H])[H])C([H])(C(=O)OC([H])([H])[H])C2([H])c2c([H])c([H])c([H])c([N+](=O)[O-])c2[H])c([H])c1[H]


 35 37  0  0  0  0  0  0  0  0999 V2000
    0.9887  -52.6031  -25.1876 C   0  0  0  0  0  0  0  0  0  0  0  0
    0.1837  -53.7042  -24.6489 C   0  0  0  0  0  0  0  0  0  0  0  0
   -0.2928  -54.7428  -25.6515 C   0  0  0  0  0  0  0  0  0  0  0  0
   -0.1417  -53.8632  -23.4449 N   0  0  0  0  0  0  0  0  0  0  0  0
    0.2659  -52.9436  -22.4508 C   0  0  0  0  0  0  0  0  0  0  0  0
   -0.1924  -53.2068  -21.0406 C   0  0  0  0  0  0  0  0  0  0  0  0
    1.0017  -51.9052  -22.7877 C   0  0  0  0  0  0  0  0  0  0  0  0
    1.4703  -51.6591  -24.1883 C   0  0  0  0  0  0  0  0  0  0  0  0
    2.9603  -51.5509  -24.1528 C   0  0  0  0  0  0  0  0  0  0  0  0
    3.7758  -52.5857  -23.7865 C   0  0  0  0  0  0  0  0  0  0  0  0
    5.1501  -52.4589  -23.7845 C   0  0  0  0  0  0  0  0  0  0  0  0
    5.7241  -51.2502  -24.1639 C   0  0  0  0  0  0  0  0  0  0  0  0
    4.9056  -50.1963  -24.5367 C   0  0  0  0  0  0  0  0  0  0  0  0
    3.5331  -50.3624  -24.5256 C   0  0  0  0  0  0  0  0  0  0  0  0
    5.5137  -48.9731  -24.9202 N   0  0  0  0  0  0  0  0  0  0  0  0
    5.7237  -48.7713  -26.1265 O   0  0  0  0  0  0  0  0  0  0  0  0
    5.8779  -48.0098  -24.0226 O   0  0  0  0  0  0  0  0  0  0  0  0
    0.1224  -51.9440  -26.2386 C   0  0  0  0  0  0  0  0  0  0  0  0
   -0.8853  -51.2992  -25.9503 O   0  0  0  0  0  0  0  0  0  0  0  0
   -0.4269  -52.5715  -28.5260 C   0  0  0  0  0  0  0  0  0  0  0  0
    0.4989  -52.0870  -27.5581 O   0  0  0  0  0  0  0  0  0  0  0  0
    1.4208  -50.9556  -21.7691 C   0  0  0  0  0  0  0  0  0  0  0  0
    2.3616  -51.3315  -20.9716 O   0  0  0  0  0  0  0  0  0  0  0  0
    0.9489  -49.6862  -21.5293 O   0  0  0  0  0  0  0  0  0  0  0  0
    1.7392  -48.5777  -21.9928 C   0  0  0  0  0  0  0  0  0  0  0  0
    3.1087  -48.5757  -21.4430 C   0  0  0  0  0  0  0  0  0  0  0  0
    3.4834  -47.5880  -20.5148 N   0  0  0  0  0  0  0  0  0  0  0  0
    3.8609  -46.3126  -20.9296 C   0  0  0  0  0  0  0  0  0  0  0  0
    4.3652  -48.1632  -19.5367 C   0  0  0  0  0  0  0  0  0  0  0  0
    3.6814  -48.8859  -18.4468 C   0  0  0  0  0  0  0  0  0  0  0  0
    3.9398  -50.2014  -18.1078 C   0  0  0  0  0  0  0  0  0  0  0  0
    3.2783  -50.8406  -17.0815 C   0  0  0  0  0  0  0  0  0  0  0  0
    2.3239  -50.1438  -16.3661 C   0  0  0  0  0  0  0  0  0  0  0  0
    2.0524  -48.8322  -16.6891 C   0  0  0  0  0  0  0  0  0  0  0  0
    2.7212  -48.2219  -17.7099 C   0  0  0  0  0  0  0  0  0  0  0  0
 20 21  1  0  0  0
 21 18  1  0  0  0
 18 19  2  0  0  0
 18  1  1  0  0  0
  1  2  1  0  0  0
  2  3  1  0  0  0
  2  4  2  0  0  0
  4  5  1  0  0  0
  5  6  1  0  0  0
  5  7  2  0  0  0
  7 22  1  0  0  0
 22 23  2  0  0  0
 22 24  1  0  0  0
 24 25  1  0  0  0
 25 26  1  0  0  0
 26 27  1  0  0  0
 27 28  1  0  0  0
 27 29  1  0  0  0
 29 30  1  0  0  0
 30 31  2  0  0  0
 31 32  1  0  0  0
 32 33  2  0  0  0
 33 34  1  0  0  0
 34 35  2  0  0  0
  7  8  1  0  0  0
  8  9  1  0  0  0
  9 10  2  0  0  0
 10 11  1  0  0  0
 11 12  2  0  0  0
 12 13  1  0  0  0
 13 15  1  0  0  0
 15 16  2  0  0  0
 15 17  1  0  0  0
 13 14  2  0  0  0
  8  1  1  0  0  0
 14  9  1  0  0  0
 35 30  1  0  0  0
M  CHG 1  15   1
M  CHG 1  17  -1
M  END
> <minimizedAffinity>
-6.04764

> <CNNscore>
0.2184751183

> <CNNaffinity>
6.3234877586

> <CNN_VS>
1.3815246820

> <CNNaffinity_variance>
0.1142448559

$$$$
[H]/C(=C(\[H])C([H])([H])C([H])([H])C([H])([H])C([H])([H])C([H])([H])C([H])([H])C([H])([H])C([H])([H])[H])C([H])([H])C([H])([H])C([H])([H])C([H])([H])C([H])([H])C([H])([H])C([H])([H])C(=O)c1nc2c([H])c([H])c([H])nc2o1


 28 29  0  0  0  0  0  0  0  0999 V2000
   -0.0348  -52.0988  -18.7994 C   0  0  0  0  0  0  0  0  0  0  0  0
   -0.5201  -53.0104  -19.8210 C   0  0  0  0  0  0  0  0  0  0  0  0
    0.0688  -53.1643  -21.1494 C   0  0  0  0  0  0  0  0  0  0  0  0
   -0.7705  -52.8442  -22.3447 C   0  0  0  0  0  0  0  0  0  0  0  0
   -0.7399  -53.9951  -23.3217 C   0  0  0  0  0  0  0  0  0  0  0  0
   -0.9583  -55.1466  -22.8924 O   0  0  0  0  0  0  0  0  0  0  0  0
   -0.4658  -53.7749  -24.7141 C   0  0  0  0  0  0  0  0  0  0  0  0
   -1.2708  -53.1166  -25.5850 N   0  0  0  0  0  0  0  0  0  0  0  0
   -0.7022  -53.0994  -26.8049 C   0  0  0  0  0  0  0  0  0  0  0  0
   -1.0221  -52.6046  -28.0390 C   0  0  0  0  0  0  0  0  0  0  0  0
   -0.1621  -52.7867  -29.0919 C   0  0  0  0  0  0  0  0  0  0  0  0
    1.0192  -53.4723  -28.8807 C   0  0  0  0  0  0  0  0  0  0  0  0
    1.3490  -53.9694  -27.6580 N   0  0  0  0  0  0  0  0  0  0  0  0
    0.4997  -53.7851  -26.6351 C   0  0  0  0  0  0  0  0  0  0  0  0
    0.5950  -54.1663  -25.3777 O   0  0  0  0  0  0  0  0  0  0  0  0
    0.7229  -50.8762  -19.1182 C   0  0  0  0  0  0  0  0  0  0  0  0
    2.1499  -51.0917  -19.4883 C   0  0  0  0  0  0  0  0  0  0  0  0
    2.8259  -49.8891  -20.1297 C   0  0  0  0  0  0  0  0  0  0  0  0
    1.6882  -48.8099  -21.9925 C   0  0  0  0  0  0  0  0  0  0  0  0
    1.7959  -49.0142  -20.7029 C   0  0  0  0  0  0  0  0  0  0  0  0
    2.5480  -49.4051  -22.9907 C   0  0  0  0  0  0  0  0  0  0  0  0
    1.9017  -50.5883  -23.7082 C   0  0  0  0  0  0  0  0  0  0  0  0
    2.5344  -51.8777  -23.3355 C   0  0  0  0  0  0  0  0  0  0  0  0
    3.7479  -52.2605  -24.1825 C   0  0  0  0  0  0  0  0  0  0  0  0
    4.9084  -52.6565  -23.3522 C   0  0  0  0  0  0  0  0  0  0  0  0
    5.3259  -51.8045  -22.2223 C   0  0  0  0  0  0  0  0  0  0  0  0
    7.0233  -50.5991  -23.5769 C   0  0  0  0  0  0  0  0  0  0  0  0
    6.0154  -50.5219  -22.4807 C   0  0  0  0  0  0  0  0  0  0  0  0
 27 28  1  0  0  0
 28 26  1  0  0  0
 26 25  1  0  0  0
 25 24  1  0  0  0
 24 23  1  0  0  0
 23 22  1  0  0  0
 22 21  1  0  0  0
 21 19  1  0  0  0
 19 20  2  0  0  0
 20 18  1  0  0  0
 18 17  1  0  0  0
 17 16  1  0  0  0
 16  1  1  0  0  0
  1  2  1  0  0  0
  2  3  1  0  0  0
  3  4  1  0  0  0
  4  5  1  0  0  0
  5  6  2  0  0  0
  5  7  1  0  0  0
  7  8  2  0  0  0
  8  9  1  0  0  0
  9 10  2  0  0  0
 10 11  1  0  0  0
 11 12  2  0  0  0
 12 13  1  0  0  0
 13 14  2  0  0  0
 14 15  1  0  0  0
 15  7  1  0  0  0
 14  9  1  0  0  0
M  END
> <minimizedAffinity>
-5.98839

> <CNNscore>
0.3780142367

> <CNNaffinity>
6.9249811172

> <CNN_VS>
2.6177413464

> <CNNaffinity_variance>
0.0628926083

$$$$
[H]/C(=C(\[H])C([H])([H])C([H])([H])C([H])([H])C([H])([H])C([H])([H])C([H])([H])C([H])([H])C([H])([H])[H])C([H])([H])C([H])([H])C([H])([H])C([H])([H])C([H])([H])C([H])([H])C([H])([H])C(=O)c1nc2c([H])c([H])c([H])nc2o1


 28 29  0  0  0  0  0  0  0  0999 V2000
    1.2045  -52.8883  -19.9827 C   0  0  0  0  0  0  0  0  0  0  0  0
   -0.1265  -53.4686  -19.9405 C   0  0  0  0  0  0  0  0  0  0  0  0
   -1.1344  -53.3209  -20.9882 C   0  0  0  0  0  0  0  0  0  0  0  0
   -0.6972  -52.8538  -22.3396 C   0  0  0  0  0  0  0  0  0  0  0  0
   -0.7477  -53.9978  -23.3239 C   0  0  0  0  0  0  0  0  0  0  0  0
   -1.0244  -55.1379  -22.8980 O   0  0  0  0  0  0  0  0  0  0  0  0
   -0.4837  -53.7839  -24.7192 C   0  0  0  0  0  0  0  0  0  0  0  0
   -1.2504  -53.0539  -25.5672 N   0  0  0  0  0  0  0  0  0  0  0  0
   -0.7057  -53.0677  -26.7979 C   0  0  0  0  0  0  0  0  0  0  0  0
   -1.0088  -52.5349  -28.0204 C   0  0  0  0  0  0  0  0  0  0  0  0
   -0.1863  -52.7723  -29.0921 C   0  0  0  0  0  0  0  0  0  0  0  0
    0.9407  -53.5517  -28.9114 C   0  0  0  0  0  0  0  0  0  0  0  0
    1.2534  -54.0874  -27.7006 N   0  0  0  0  0  0  0  0  0  0  0  0
    0.4411  -53.8483  -26.6591 C   0  0  0  0  0  0  0  0  0  0  0  0
    0.5299  -54.2504  -25.4077 O   0  0  0  0  0  0  0  0  0  0  0  0
    1.4807  -51.4993  -19.5767 C   0  0  0  0  0  0  0  0  0  0  0  0
    2.6470  -50.8610  -20.2489 C   0  0  0  0  0  0  0  0  0  0  0  0
    2.8866  -51.3261  -21.6776 C   0  0  0  0  0  0  0  0  0  0  0  0
    2.5648  -49.8654  -23.5991 C   0  0  0  0  0  0  0  0  0  0  0  0
    2.0586  -50.5219  -22.5846 C   0  0  0  0  0  0  0  0  0  0  0  0
    3.9680  -49.8498  -23.9465 C   0  0  0  0  0  0  0  0  0  0  0  0
    4.4597  -48.4727  -24.3877 C   0  0  0  0  0  0  0  0  0  0  0  0
    3.3612  -47.6394  -24.9358 C   0  0  0  0  0  0  0  0  0  0  0  0
    3.8109  -46.5573  -25.9173 C   0  0  0  0  0  0  0  0  0  0  0  0
    2.6673  -45.9076  -26.5978 C   0  0  0  0  0  0  0  0  0  0  0  0
    2.8563  -45.2984  -27.9283 C   0  0  0  0  0  0  0  0  0  0  0  0
    3.6996  -46.9555  -29.5752 C   0  0  0  0  0  0  0  0  0  0  0  0
    2.5675  -46.0845  -29.1473 C   0  0  0  0  0  0  0  0  0  0  0  0
 27 28  1  0  0  0
 28 26  1  0  0  0
 26 25  1  0  0  0
 25 24  1  0  0  0
 24 23  1  0  0  0
 23 22  1  0  0  0
 22 21  1  0  0  0
 21 19  1  0  0  0
 19 20  2  0  0  0
 20 18  1  0  0  0
 18 17  1  0  0  0
 17 16  1  0  0  0
 16  1  1  0  0  0
  1  2  1  0  0  0
  2  3  1  0  0  0
  3  4  1  0  0  0
  4  5  1  0  0  0
  5  6  2  0  0  0
  5  7  1  0  0  0
  7  8  2  0  0  0
  8  9  1  0  0  0
  9 10  2  0  0  0
 10 11  1  0  0  0
 11 12  2  0  0  0
 12 13  1  0  0  0
 13 14  2  0  0  0
 14 15  1  0  0  0
 15  7  1  0  0  0
 14  9  1  0  0  0
M  END
> <minimizedAffinity>
-5.74459

> <CNNscore>
0.3314811289

> <CNNaffinity>
6.6724419594

> <CNN_VS>
2.2117886543

> <CNNaffinity_variance>
0.0961897224

$$$$
[H]/C(=C(\[H])C([H])([H])C([H])([H])C([H])([H])C([H])([H])C([H])([H])C([H])([H])C([H])([H])C([H])([H])[H])C([H])([H])C([H])([H])C([H])([H])C([H])([H])C([H])([H])C([H])([H])C([H])([H])C(=O)c1nc2c([H])c([H])c([H])nc2o1


 28 29  0  0  0  0  0  0  0  0999 V2000
    1.3998  -50.6244  -22.1669 C   0  0  0  0  0  0  0  0  0  0  0  0
    1.0611  -51.6683  -23.1186 C   0  0  0  0  0  0  0  0  0  0  0  0
    0.1023  -52.7430  -22.8717 C   0  0  0  0  0  0  0  0  0  0  0  0
   -0.8459  -52.6050  -21.7239 C   0  0  0  0  0  0  0  0  0  0  0  0
   -0.2572  -53.2404  -20.4870 C   0  0  0  0  0  0  0  0  0  0  0  0
    0.2114  -54.3938  -20.5757 O   0  0  0  0  0  0  0  0  0  0  0  0
   -0.2349  -52.5375  -19.2349 C   0  0  0  0  0  0  0  0  0  0  0  0
   -1.0333  -52.7940  -18.1688 N   0  0  0  0  0  0  0  0  0  0  0  0
   -0.7407  -51.9435  -17.1673 C   0  0  0  0  0  0  0  0  0  0  0  0
   -1.1893  -51.7215  -15.8947 C   0  0  0  0  0  0  0  0  0  0  0  0
   -0.6296  -50.7242  -15.1373 C   0  0  0  0  0  0  0  0  0  0  0  0
    0.3844  -49.9590  -15.6818 C   0  0  0  0  0  0  0  0  0  0  0  0
    0.8396  -50.1698  -16.9464 N   0  0  0  0  0  0  0  0  0  0  0  0
    0.2843  -51.1485  -17.6781 C   0  0  0  0  0  0  0  0  0  0  0  0
    0.5496  -51.5392  -18.9079 O   0  0  0  0  0  0  0  0  0  0  0  0
    2.6855  -49.9057  -22.1976 C   0  0  0  0  0  0  0  0  0  0  0  0
    2.9147  -49.0654  -23.4063 C   0  0  0  0  0  0  0  0  0  0  0  0
    3.6042  -49.7848  -24.5559 C   0  0  0  0  0  0  0  0  0  0  0  0
    2.5453  -50.7612  -26.5193 C   0  0  0  0  0  0  0  0  0  0  0  0
    2.7397  -49.7254  -25.7408 C   0  0  0  0  0  0  0  0  0  0  0  0
    3.1421  -52.0621  -26.3158 C   0  0  0  0  0  0  0  0  0  0  0  0
    2.8603  -53.0349  -27.4590 C   0  0  0  0  0  0  0  0  0  0  0  0
    1.4768  -52.8980  -27.9774 C   0  0  0  0  0  0  0  0  0  0  0  0
    0.5221  -54.0116  -27.5476 C   0  0  0  0  0  0  0  0  0  0  0  0
   -0.3496  -53.5997  -26.4235 C   0  0  0  0  0  0  0  0  0  0  0  0
   -0.9040  -52.2329  -26.3889 C   0  0  0  0  0  0  0  0  0  0  0  0
   -2.7533  -52.4128  -28.0373 C   0  0  0  0  0  0  0  0  0  0  0  0
   -2.3409  -52.0124  -26.6615 C   0  0  0  0  0  0  0  0  0  0  0  0
 27 28  1  0  0  0
 28 26  1  0  0  0
 26 25  1  0  0  0
 25 24  1  0  0  0
 24 23  1  0  0  0
 23 22  1  0  0  0
 22 21  1  0  0  0
 21 19  1  0  0  0
 19 20  2  0  0  0
 20 18  1  0  0  0
 18 17  1  0  0  0
 17 16  1  0  0  0
 16  1  1  0  0  0
  1  2  1  0  0  0
  2  3  1  0  0  0
  3  4  1  0  0  0
  4  5  1  0  0  0
  5  6  2  0  0  0
  5  7  1  0  0  0
  7  8  2  0  0  0
  8  9  1  0  0  0
  9 10  2  0  0  0
 10 11  1  0  0  0
 11 12  2  0  0  0
 12 13  1  0  0  0
 13 14  2  0  0  0
 14 15  1  0  0  0
 15  7  1  0  0  0
 14  9  1  0  0  0
M  END
> <minimizedAffinity>
-5.69460

> <CNNscore>
0.2849023938

> <CNNaffinity>
6.4414892197

> <CNN_VS>
1.8351956606

> <CNNaffinity_variance>
0.1501642168

$$$$
[H]/C(=C(\[H])C([H])([H])C([H])([H])C([H])([H])C([H])([H])C([H])([H])C([H])([H])C([H])([H])C([H])([H])[H])C([H])([H])C([H])([H])C([H])([H])C([H])([H])C([H])([H])C([H])([H])C([H])([H])C(=O)c1nc2c([H])c([H])c([H])nc2o1


 28 29  0  0  0  0  0  0  0  0999 V2000
   -0.5729  -52.0995  -25.4681 C   0  0  0  0  0  0  0  0  0  0  0  0
   -0.9993  -52.1470  -26.8560 C   0  0  0  0  0  0  0  0  0  0  0  0
   -0.6439  -53.2025  -27.8020 C   0  0  0  0  0  0  0  0  0  0  0  0
    0.4301  -52.9303  -28.8061 C   0  0  0  0  0  0  0  0  0  0  0  0
    1.7662  -53.3877  -28.2716 C   0  0  0  0  0  0  0  0  0  0  0  0
    2.2632  -54.4369  -28.7296 O   0  0  0  0  0  0  0  0  0  0  0  0
    2.4531  -52.6360  -27.2589 C   0  0  0  0  0  0  0  0  0  0  0  0
    3.0143  -53.1493  -26.1358 N   0  0  0  0  0  0  0  0  0  0  0  0
    3.5711  -52.1596  -25.4132 C   0  0  0  0  0  0  0  0  0  0  0  0
    4.2554  -52.0600  -24.2334 C   0  0  0  0  0  0  0  0  0  0  0  0
    4.6862  -50.8338  -23.7949 C   0  0  0  0  0  0  0  0  0  0  0  0
    4.4170  -49.7160  -24.5618 C   0  0  0  0  0  0  0  0  0  0  0  0
    3.7373  -49.8017  -25.7372 N   0  0  0  0  0  0  0  0  0  0  0  0
    3.3207  -51.0068  -26.1562 C   0  0  0  0  0  0  0  0  0  0  0  0
    2.6546  -51.3406  -27.2428 O   0  0  0  0  0  0  0  0  0  0  0  0
   -0.3166  -53.3123  -24.6720 C   0  0  0  0  0  0  0  0  0  0  0  0
    0.1108  -53.0703  -23.2655 C   0  0  0  0  0  0  0  0  0  0  0  0
    0.8709  -51.7702  -23.0497 C   0  0  0  0  0  0  0  0  0  0  0  0
    1.4896  -50.9068  -20.8586 C   0  0  0  0  0  0  0  0  0  0  0  0
    1.5851  -51.8438  -21.7693 C   0  0  0  0  0  0  0  0  0  0  0  0
    0.6888  -49.7109  -20.9946 C   0  0  0  0  0  0  0  0  0  0  0  0
    1.5053  -48.4879  -21.4072 C   0  0  0  0  0  0  0  0  0  0  0  0
    2.8948  -48.5466  -20.8899 C   0  0  0  0  0  0  0  0  0  0  0  0
    3.8566  -47.5471  -21.5318 C   0  0  0  0  0  0  0  0  0  0  0  0
    3.1848  -46.6860  -22.5320 C   0  0  0  0  0  0  0  0  0  0  0  0
    3.9446  -46.1785  -23.6904 C   0  0  0  0  0  0  0  0  0  0  0  0
    1.9216  -45.0278  -24.5581 C   0  0  0  0  0  0  0  0  0  0  0  0
    3.2259  -45.6745  -24.8807 C   0  0  0  0  0  0  0  0  0  0  0  0
 27 28  1  0  0  0
 28 26  1  0  0  0
 26 25  1  0  0  0
 25 24  1  0  0  0
 24 23  1  0  0  0
 23 22  1  0  0  0
 22 21  1  0  0  0
 21 19  1  0  0  0
 19 20  2  0  0  0
 20 18  1  0  0  0
 18 17  1  0  0  0
 17 16  1  0  0  0
 16  1  1  0  0  0
  1  2  1  0  0  0
  2  3  1  0  0  0
  3  4  1  0  0  0
  4  5  1  0  0  0
  5  6  2  0  0  0
  5  7  1  0  0  0
  7  8  2  0  0  0
  8  9  1  0  0  0
  9 10  2  0  0  0
 10 11  1  0  0  0
 11 12  2  0  0  0
 12 13  1  0  0  0
 13 14  2  0  0  0
 14 15  1  0  0  0
 15  7  1  0  0  0
 14  9  1  0  0  0
M  END
> <minimizedAffinity>
-5.75835

> <CNNscore>
0.2791951299

> <CNNaffinity>
6.4773969650

> <CNN_VS>
1.8084577322

> <CNNaffinity_variance>
0.2339308262

$$$$
[H]/C(=C(\[H])C([H])([H])C([H])([H])C([H])([H])C([H])([H])C([H])([H])C([H])([H])C([H])([H])C([H])([H])[H])C([H])([H])C([H])([H])C([H])([H])C([H])([H])C([H])([H])C([H])([H])C([H])([H])C(=O)c1nc2c([H])c([H])c([H])nc2o1


 28 29  0  0  0  0  0  0  0  0999 V2000
    0.6916  -53.2720  -19.6386 C   0  0  0  0  0  0  0  0  0  0  0  0
   -0.7499  -53.2456  -19.8162 C   0  0  0  0  0  0  0  0  0  0  0  0
   -1.4411  -53.5332  -21.0712 C   0  0  0  0  0  0  0  0  0  0  0  0
   -0.8151  -53.0812  -22.3516 C   0  0  0  0  0  0  0  0  0  0  0  0
   -0.8394  -54.2018  -23.3634 C   0  0  0  0  0  0  0  0  0  0  0  0
   -1.1109  -55.3544  -22.9689 O   0  0  0  0  0  0  0  0  0  0  0  0
   -0.5568  -53.9521  -24.7491 C   0  0  0  0  0  0  0  0  0  0  0  0
   -1.2176  -53.0760  -25.5464 N   0  0  0  0  0  0  0  0  0  0  0  0
   -0.6885  -53.1000  -26.7838 C   0  0  0  0  0  0  0  0  0  0  0  0
   -0.9209  -52.4641  -27.9720 C   0  0  0  0  0  0  0  0  0  0  0  0
   -0.1475  -52.7571  -29.0664 C   0  0  0  0  0  0  0  0  0  0  0  0
    0.8585  -53.6968  -28.9430 C   0  0  0  0  0  0  0  0  0  0  0  0
    1.0998  -54.3363  -27.7667 N   0  0  0  0  0  0  0  0  0  0  0  0
    0.3366  -54.0414  -26.7027 C   0  0  0  0  0  0  0  0  0  0  0  0
    0.3756  -54.5193  -25.4756 O   0  0  0  0  0  0  0  0  0  0  0  0
    1.5384  -52.0807  -19.8238 C   0  0  0  0  0  0  0  0  0  0  0  0
    1.1539  -50.8950  -19.0079 C   0  0  0  0  0  0  0  0  0  0  0  0
    1.7176  -49.5731  -19.5075 C   0  0  0  0  0  0  0  0  0  0  0  0
    1.3589  -48.3443  -21.5790 C   0  0  0  0  0  0  0  0  0  0  0  0
    0.8805  -49.0858  -20.6106 C   0  0  0  0  0  0  0  0  0  0  0  0
    2.7376  -47.9221  -21.6826 C   0  0  0  0  0  0  0  0  0  0  0  0
    3.4856  -48.5979  -22.8300 C   0  0  0  0  0  0  0  0  0  0  0  0
    4.5064  -49.5568  -22.3401 C   0  0  0  0  0  0  0  0  0  0  0  0
    4.3889  -50.9652  -22.9223 C   0  0  0  0  0  0  0  0  0  0  0  0
    3.0121  -51.5010  -22.8199 C   0  0  0  0  0  0  0  0  0  0  0  0
    2.3073  -51.9478  -24.0366 C   0  0  0  0  0  0  0  0  0  0  0  0
    2.5543  -50.8562  -26.2541 C   0  0  0  0  0  0  0  0  0  0  0  0
    1.7724  -50.9496  -24.9879 C   0  0  0  0  0  0  0  0  0  0  0  0
 27 28  1  0  0  0
 28 26  1  0  0  0
 26 25  1  0  0  0
 25 24  1  0  0  0
 24 23  1  0  0  0
 23 22  1  0  0  0
 22 21  1  0  0  0
 21 19  1  0  0  0
 19 20  2  0  0  0
 20 18  1  0  0  0
 18 17  1  0  0  0
 17 16  1  0  0  0
 16  1  1  0  0  0
  1  2  1  0  0  0
  2  3  1  0  0  0
  3  4  1  0  0  0
  4  5  1  0  0  0
  5  6  2  0  0  0
  5  7  1  0  0  0
  7  8  2  0  0  0
  8  9  1  0  0  0
  9 10  2  0  0  0
 10 11  1  0  0  0
 11 12  2  0  0  0
 12 13  1  0  0  0
 13 14  2  0  0  0
 14 15  1  0  0  0
 15  7  1  0  0  0
 14  9  1  0  0  0
M  END
> <minimizedAffinity>
-5.97642

> <CNNscore>
0.2731349766

> <CNNaffinity>
6.6074919701

> <CNN_VS>
1.8047372103

> <CNNaffinity_variance>
0.2731191218

$$$$
[H]/C(=C(\[H])C([H])([H])C([H])([H])C([H])([H])C([H])([H])C([H])([H])C([H])([H])C([H])([H])C([H])([H])[H])C([H])([H])C([H])([H])C([H])([H])C([H])([H])C([H])([H])C([H])([H])C([H])([H])C(=O)c1nc2c([H])c([H])c([H])nc2o1


 28 29  0  0  0  0  0  0  0  0999 V2000
    1.0172  -52.9556  -19.9220 C   0  0  0  0  0  0  0  0  0  0  0  0
   -0.2066  -53.7275  -20.0507 C   0  0  0  0  0  0  0  0  0  0  0  0
   -0.9420  -53.9232  -21.2982 C   0  0  0  0  0  0  0  0  0  0  0  0
   -0.1700  -54.0215  -22.5750 C   0  0  0  0  0  0  0  0  0  0  0  0
   -0.3032  -52.7387  -23.3603 C   0  0  0  0  0  0  0  0  0  0  0  0
   -0.3199  -51.6577  -22.7366 O   0  0  0  0  0  0  0  0  0  0  0  0
   -0.4089  -52.7569  -24.7924 C   0  0  0  0  0  0  0  0  0  0  0  0
    0.6242  -52.8924  -25.6608 N   0  0  0  0  0  0  0  0  0  0  0  0
    0.1616  -52.8660  -26.9246 C   0  0  0  0  0  0  0  0  0  0  0  0
    0.7013  -52.9534  -28.1780 C   0  0  0  0  0  0  0  0  0  0  0  0
   -0.1137  -52.8837  -29.2792 C   0  0  0  0  0  0  0  0  0  0  0  0
   -1.4744  -52.7254  -29.0960 C   0  0  0  0  0  0  0  0  0  0  0  0
   -2.0237  -52.6373  -27.8545 N   0  0  0  0  0  0  0  0  0  0  0  0
   -1.2163  -52.7067  -26.7844 C   0  0  0  0  0  0  0  0  0  0  0  0
   -1.5067  -52.6472  -25.5008 O   0  0  0  0  0  0  0  0  0  0  0  0
    1.1121  -51.7474  -19.0843 C   0  0  0  0  0  0  0  0  0  0  0  0
    2.4977  -51.2858  -18.7900 C   0  0  0  0  0  0  0  0  0  0  0  0
    3.3877  -51.1336  -20.0145 C   0  0  0  0  0  0  0  0  0  0  0  0
    3.5107  -48.7040  -20.1210 C   0  0  0  0  0  0  0  0  0  0  0  0
    4.1043  -49.8555  -19.9256 C   0  0  0  0  0  0  0  0  0  0  0  0
    2.1094  -48.5488  -20.4407 C   0  0  0  0  0  0  0  0  0  0  0  0
    1.8456  -48.4509  -21.9419 C   0  0  0  0  0  0  0  0  0  0  0  0
    3.0280  -47.9457  -22.6824 C   0  0  0  0  0  0  0  0  0  0  0  0
    3.3147  -48.6717  -23.9966 C   0  0  0  0  0  0  0  0  0  0  0  0
    2.6223  -49.9782  -24.0778 C   0  0  0  0  0  0  0  0  0  0  0  0
    3.3719  -51.1806  -24.4891 C   0  0  0  0  0  0  0  0  0  0  0  0
    5.3290  -51.6354  -23.0289 C   0  0  0  0  0  0  0  0  0  0  0  0
    3.9689  -52.0642  -23.4643 C   0  0  0  0  0  0  0  0  0  0  0  0
 27 28  1  0  0  0
 28 26  1  0  0  0
 26 25  1  0  0  0
 25 24  1  0  0  0
 24 23  1  0  0  0
 23 22  1  0  0  0
 22 21  1  0  0  0
 21 19  1  0  0  0
 19 20  2  0  0  0
 20 18  1  0  0  0
 18 17  1  0  0  0
 17 16  1  0  0  0
 16  1  1  0  0  0
  1  2  1  0  0  0
  2  3  1  0  0  0
  3  4  1  0  0  0
  4  5  1  0  0  0
  5  6  2  0  0  0
  5  7  1  0  0  0
  7  8  2  0  0  0
  8  9  1  0  0  0
  9 10  2  0  0  0
 10 11  1  0  0  0
 11 12  2  0  0  0
 12 13  1  0  0  0
 13 14  2  0  0  0
 14 15  1  0  0  0
 15  7  1  0  0  0
 14  9  1  0  0  0
M  END
> <minimizedAffinity>
-5.49137

> <CNNscore>
0.2706162035

> <CNNaffinity>
6.4967298508

> <CNN_VS>
1.7581204176

> <CNNaffinity_variance>
0.2689131796

$$$$
[H]/C(=C(\[H])C([H])([H])C([H])([H])C([H])([H])C([H])([H])C([H])([H])C([H])([H])C([H])([H])C([H])([H])[H])C([H])([H])C([H])([H])C([H])([H])C([H])([H])C([H])([H])C([H])([H])C([H])([H])C(=O)c1nc2c([H])c([H])c([H])nc2o1


 28 29  0  0  0  0  0  0  0  0999 V2000
   -1.0426  -52.2264  -25.3528 C   0  0  0  0  0  0  0  0  0  0  0  0
   -1.1584  -52.2249  -26.8008 C   0  0  0  0  0  0  0  0  0  0  0  0
   -0.6441  -53.2729  -27.6797 C   0  0  0  0  0  0  0  0  0  0  0  0
    0.4364  -52.9233  -28.6525 C   0  0  0  0  0  0  0  0  0  0  0  0
    1.7789  -53.3534  -28.1113 C   0  0  0  0  0  0  0  0  0  0  0  0
    2.4000  -54.2565  -28.7085 O   0  0  0  0  0  0  0  0  0  0  0  0
    2.3324  -52.7405  -26.9364 C   0  0  0  0  0  0  0  0  0  0  0  0
    2.2727  -51.4207  -26.6291 N   0  0  0  0  0  0  0  0  0  0  0  0
    2.8947  -51.1991  -25.4562 C   0  0  0  0  0  0  0  0  0  0  0  0
    3.1517  -50.1163  -24.6614 C   0  0  0  0  0  0  0  0  0  0  0  0
    3.8422  -50.2791  -23.4874 C   0  0  0  0  0  0  0  0  0  0  0  0
    4.2667  -51.5450  -23.1303 C   0  0  0  0  0  0  0  0  0  0  0  0
    4.0174  -52.6302  -23.9121 N   0  0  0  0  0  0  0  0  0  0  0  0
    3.3409  -52.4587  -25.0586 C   0  0  0  0  0  0  0  0  0  0  0  0
    2.9831  -53.3408  -25.9694 O   0  0  0  0  0  0  0  0  0  0  0  0
   -0.4975  -53.3687  -24.5989 C   0  0  0  0  0  0  0  0  0  0  0  0
    0.1044  -53.0295  -23.2789 C   0  0  0  0  0  0  0  0  0  0  0  0
   -0.1163  -54.0745  -22.1953 C   0  0  0  0  0  0  0  0  0  0  0  0
   -1.3263  -53.3708  -20.2028 C   0  0  0  0  0  0  0  0  0  0  0  0
   -1.3422  -53.7439  -21.4586 C   0  0  0  0  0  0  0  0  0  0  0  0
   -0.1296  -53.2399  -19.4024 C   0  0  0  0  0  0  0  0  0  0  0  0
   -0.0620  -51.9188  -18.6390 C   0  0  0  0  0  0  0  0  0  0  0  0
    1.1947  -51.1801  -18.9161 C   0  0  0  0  0  0  0  0  0  0  0  0
    1.5065  -50.9872  -20.4000 C   0  0  0  0  0  0  0  0  0  0  0  0
    0.6185  -49.9857  -21.0337 C   0  0  0  0  0  0  0  0  0  0  0  0
    1.1560  -48.6646  -21.4116 C   0  0  0  0  0  0  0  0  0  0  0  0
    3.1377  -47.1727  -21.5406 C   0  0  0  0  0  0  0  0  0  0  0  0
    2.3412  -48.1228  -20.7122 C   0  0  0  0  0  0  0  0  0  0  0  0
 27 28  1  0  0  0
 28 26  1  0  0  0
 26 25  1  0  0  0
 25 24  1  0  0  0
 24 23  1  0  0  0
 23 22  1  0  0  0
 22 21  1  0  0  0
 21 19  1  0  0  0
 19 20  2  0  0  0
 20 18  1  0  0  0
 18 17  1  0  0  0
 17 16  1  0  0  0
 16  1  1  0  0  0
  1  2  1  0  0  0
  2  3  1  0  0  0
  3  4  1  0  0  0
  4  5  1  0  0  0
  5  6  2  0  0  0
  5  7  1  0  0  0
  7  8  2  0  0  0
  8  9  1  0  0  0
  9 10  2  0  0  0
 10 11  1  0  0  0
 11 12  2  0  0  0
 12 13  1  0  0  0
 13 14  2  0  0  0
 14 15  1  0  0  0
 15  7  1  0  0  0
 14  9  1  0  0  0
M  END
> <minimizedAffinity>
-6.19580

> <CNNscore>
0.2611089349

> <CNNaffinity>
6.4651107788

> <CNN_VS>
1.6880981922

> <CNNaffinity_variance>
0.4902734160

$$$$
[H]/C(=C(\[H])C([H])([H])C([H])([H])C([H])([H])C([H])([H])C([H])([H])C([H])([H])C([H])([H])C([H])([H])[H])C([H])([H])C([H])([H])C([H])([H])C([H])([H])C([H])([H])C([H])([H])C([H])([H])C(=O)c1nc2c([H])c([H])c([H])nc2o1


 28 29  0  0  0  0  0  0  0  0999 V2000
    1.5832  -51.6226  -22.8535 C   0  0  0  0  0  0  0  0  0  0  0  0
    0.2557  -51.6086  -22.2637 C   0  0  0  0  0  0  0  0  0  0  0  0
   -0.3213  -52.7001  -21.4821 C   0  0  0  0  0  0  0  0  0  0  0  0
   -0.0153  -54.1072  -21.8851 C   0  0  0  0  0  0  0  0  0  0  0  0
   -0.9429  -54.5409  -22.9949 C   0  0  0  0  0  0  0  0  0  0  0  0
   -1.9599  -55.2003  -22.6973 O   0  0  0  0  0  0  0  0  0  0  0  0
   -0.6651  -54.2050  -24.3633 C   0  0  0  0  0  0  0  0  0  0  0  0
   -1.2358  -53.1917  -25.0614 N   0  0  0  0  0  0  0  0  0  0  0  0
   -0.7422  -53.1683  -26.3134 C   0  0  0  0  0  0  0  0  0  0  0  0
   -0.9252  -52.4081  -27.4352 C   0  0  0  0  0  0  0  0  0  0  0  0
   -0.2177  -52.6917  -28.5756 C   0  0  0  0  0  0  0  0  0  0  0  0
    0.6725  -53.7489  -28.5657 C   0  0  0  0  0  0  0  0  0  0  0  0
    0.8637  -54.5127  -27.4562 N   0  0  0  0  0  0  0  0  0  0  0  0
    0.1658  -54.2258  -26.3462 C   0  0  0  0  0  0  0  0  0  0  0  0
    0.1765  -54.8106  -25.1658 O   0  0  0  0  0  0  0  0  0  0  0  0
    1.8168  -51.4167  -24.2935 C   0  0  0  0  0  0  0  0  0  0  0  0
    2.5198  -50.1520  -24.6485 C   0  0  0  0  0  0  0  0  0  0  0  0
    3.7339  -50.3335  -25.5472 C   0  0  0  0  0  0  0  0  0  0  0  0
    5.7614  -49.2996  -24.6816 C   0  0  0  0  0  0  0  0  0  0  0  0
    4.6422  -49.1965  -25.3548 C   0  0  0  0  0  0  0  0  0  0  0  0
    6.2332  -50.5156  -24.0583 C   0  0  0  0  0  0  0  0  0  0  0  0
    7.2171  -50.2607  -22.9182 C   0  0  0  0  0  0  0  0  0  0  0  0
    6.6199  -50.5550  -21.5922 C   0  0  0  0  0  0  0  0  0  0  0  0
    5.1882  -51.0881  -21.6421 C   0  0  0  0  0  0  0  0  0  0  0  0
    4.2401  -50.2172  -20.9103 C   0  0  0  0  0  0  0  0  0  0  0  0
    4.2930  -48.7549  -21.0990 C   0  0  0  0  0  0  0  0  0  0  0  0
    1.9135  -48.1644  -21.4976 C   0  0  0  0  0  0  0  0  0  0  0  0
    3.3185  -48.0904  -21.9913 C   0  0  0  0  0  0  0  0  0  0  0  0
 27 28  1  0  0  0
 28 26  1  0  0  0
 26 25  1  0  0  0
 25 24  1  0  0  0
 24 23  1  0  0  0
 23 22  1  0  0  0
 22 21  1  0  0  0
 21 19  1  0  0  0
 19 20  2  0  0  0
 20 18  1  0  0  0
 18 17  1  0  0  0
 17 16  1  0  0  0
 16  1  1  0  0  0
  1  2  1  0  0  0
  2  3  1  0  0  0
  3  4  1  0  0  0
  4  5  1  0  0  0
  5  6  2  0  0  0
  5  7  1  0  0  0
  7  8  2  0  0  0
  8  9  1  0  0  0
  9 10  2  0  0  0
 10 11  1  0  0  0
 11 12  2  0  0  0
 12 13  1  0  0  0
 13 14  2  0  0  0
 14 15  1  0  0  0
 15  7  1  0  0  0
 14  9  1  0  0  0
M  END
> <minimizedAffinity>
-5.53363

> <CNNscore>
0.2585895658

> <CNNaffinity>
6.5528283119

> <CNN_VS>
1.6944930553

> <CNNaffinity_variance>
0.1318988651

$$$$
[H]/C(=C(\[H])C([H])([H])C([H])([H])C([H])([H])C([H])([H])C([H])([H])C([H])([H])C([H])([H])C([H])([H])[H])C([H])([H])C([H])([H])C([H])([H])C([H])([H])C([H])([H])C([H])([H])C([H])([H])C(=O)c1nc2c([H])c([H])c([H])nc2o1


 28 29  0  0  0  0  0  0  0  0999 V2000
   -1.9390  -52.1745  -26.3424 C   0  0  0  0  0  0  0  0  0  0  0  0
   -1.1898  -52.2338  -27.5856 C   0  0  0  0  0  0  0  0  0  0  0  0
   -0.6048  -53.4482  -28.1497 C   0  0  0  0  0  0  0  0  0  0  0  0
    0.4984  -53.3121  -29.1499 C   0  0  0  0  0  0  0  0  0  0  0  0
    1.8185  -53.6834  -28.5179 C   0  0  0  0  0  0  0  0  0  0  0  0
    2.3436  -54.7715  -28.8314 O   0  0  0  0  0  0  0  0  0  0  0  0
    2.4591  -52.8080  -27.5768 C   0  0  0  0  0  0  0  0  0  0  0  0
    3.2328  -53.1975  -26.5330 N   0  0  0  0  0  0  0  0  0  0  0  0
    3.6678  -52.1151  -25.8615 C   0  0  0  0  0  0  0  0  0  0  0  0
    4.4502  -51.8792  -24.7650 C   0  0  0  0  0  0  0  0  0  0  0  0
    4.6846  -50.5906  -24.3574 C   0  0  0  0  0  0  0  0  0  0  0  0
    4.1198  -49.5497  -25.0702 C   0  0  0  0  0  0  0  0  0  0  0  0
    3.3398  -49.7711  -26.1626 N   0  0  0  0  0  0  0  0  0  0  0  0
    3.1175  -51.0362  -26.5520 C   0  0  0  0  0  0  0  0  0  0  0  0
    2.4085  -51.4979  -27.5618 O   0  0  0  0  0  0  0  0  0  0  0  0
   -1.3465  -51.7065  -25.0774 C   0  0  0  0  0  0  0  0  0  0  0  0
    0.1105  -51.9756  -24.9205 C   0  0  0  0  0  0  0  0  0  0  0  0
    0.4414  -53.1923  -24.0692 C   0  0  0  0  0  0  0  0  0  0  0  0
    0.7959  -52.4188  -21.7877 C   0  0  0  0  0  0  0  0  0  0  0  0
    0.0036  -52.9415  -22.6907 C   0  0  0  0  0  0  0  0  0  0  0  0
    2.1679  -52.0316  -22.0275 C   0  0  0  0  0  0  0  0  0  0  0  0
    2.5163  -50.6668  -21.4371 C   0  0  0  0  0  0  0  0  0  0  0  0
    1.5625  -49.6148  -21.8675 C   0  0  0  0  0  0  0  0  0  0  0  0
    1.3504  -48.4926  -20.8517 C   0  0  0  0  0  0  0  0  0  0  0  0
    1.4311  -48.9782  -19.4550 C   0  0  0  0  0  0  0  0  0  0  0  0
    0.4258  -49.9340  -18.9523 C   0  0  0  0  0  0  0  0  0  0  0  0
   -0.2481  -51.7315  -17.3761 C   0  0  0  0  0  0  0  0  0  0  0  0
    0.8548  -51.1090  -18.1631 C   0  0  0  0  0  0  0  0  0  0  0  0
 27 28  1  0  0  0
 28 26  1  0  0  0
 26 25  1  0  0  0
 25 24  1  0  0  0
 24 23  1  0  0  0
 23 22  1  0  0  0
 22 21  1  0  0  0
 21 19  1  0  0  0
 19 20  2  0  0  0
 20 18  1  0  0  0
 18 17  1  0  0  0
 17 16  1  0  0  0
 16  1  1  0  0  0
  1  2  1  0  0  0
  2  3  1  0  0  0
  3  4  1  0  0  0
  4  5  1  0  0  0
  5  6  2  0  0  0
  5  7  1  0  0  0
  7  8  2  0  0  0
  8  9  1  0  0  0
  9 10  2  0  0  0
 10 11  1  0  0  0
 11 12  2  0  0  0
 12 13  1  0  0  0
 13 14  2  0  0  0
 14 15  1  0  0  0
 15  7  1  0  0  0
 14  9  1  0  0  0
M  END
> <minimizedAffinity>
-5.46670

> <CNNscore>
0.2495597154

> <CNNaffinity>
6.4366326332

> <CNN_VS>
1.6063241959

> <CNNaffinity_variance>
0.1449127793

$$$$
[H]c1c([H])c([H])c(C([H])([H])C([H])([H])C([H])([H])[H])c(OC([H])(C2=NC([H])([H])C([H])([H])N2[H])C([H])([H])[H])c1[H]


 18 19  0  0  0  0  0  0  0  0999 V2000
   -0.0664  -52.8859  -26.9403 C   0  0  0  0  0  0  0  0  0  0  0  0
   -0.3910  -52.9700  -28.2760 C   0  0  0  0  0  0  0  0  0  0  0  0
   -1.6563  -52.6841  -28.7438 C   0  0  0  0  0  0  0  0  0  0  0  0
   -2.6514  -52.2981  -27.8703 C   0  0  0  0  0  0  0  0  0  0  0  0
   -2.3466  -52.2077  -26.5298 C   0  0  0  0  0  0  0  0  0  0  0  0
   -1.0837  -52.4931  -26.0615 C   0  0  0  0  0  0  0  0  0  0  0  0
    1.2638  -53.1864  -26.4033 C   0  0  0  0  0  0  0  0  0  0  0  0
    3.1702  -52.6012  -27.8973 C   0  0  0  0  0  0  0  0  0  0  0  0
    2.2877  -52.1215  -26.7382 C   0  0  0  0  0  0  0  0  0  0  0  0
   -0.7465  -52.4141  -24.7459 O   0  0  0  0  0  0  0  0  0  0  0  0
   -0.2007  -53.3854  -23.9287 C   0  0  0  0  0  0  0  0  0  0  0  0
   -1.0620  -54.5954  -23.7479 C   0  0  0  0  0  0  0  0  0  0  0  0
    0.1581  -52.8340  -22.5673 C   0  0  0  0  0  0  0  0  0  0  0  0
    0.5703  -51.6327  -22.3991 N   0  0  0  0  0  0  0  0  0  0  0  0
    0.8382  -51.3737  -21.0163 C   0  0  0  0  0  0  0  0  0  0  0  0
    0.7669  -52.7252  -20.3419 C   0  0  0  0  0  0  0  0  0  0  0  0
    0.0969  -53.5238  -21.3358 N   0  0  0  0  0  0  0  0  0  0  0  0
   -0.3649  -54.4683  -21.1747 H   0  0  0  0  0  0  0  0  0  0  0  0
  8  9  1  0  0  0
  9  7  1  0  0  0
  7  1  1  0  0  0
  1  2  2  0  0  0
  2  3  1  0  0  0
  3  4  2  0  0  0
  4  5  1  0  0  0
  5  6  2  0  0  0
  6 10  1  0  0  0
 10 11  1  0  0  0
 11 12  1  0  0  0
 11 13  1  0  0  0
 13 14  2  0  0  0
 14 15  1  0  0  0
 15 16  1  0  0  0
 16 17  1  0  0  0
  6  1  1  0  0  0
 17 13  1  0  0  0
 17 18  1  0  0  0
M  END
> <minimizedAffinity>
-5.66274

> <CNNscore>
0.5071942806

> <CNNaffinity>
5.3173589706

> <CNN_VS>
2.6969339848

> <CNNaffinity_variance>
0.1811154187

$$$$
[H]c1c([H])c([H])c(C([H])([H])C([H])([H])C([H])([H])[H])c(OC([H])(C2=NC([H])([H])C([H])([H])N2[H])C([H])([H])[H])c1[H]


 18 19  0  0  0  0  0  0  0  0999 V2000
    0.3011  -52.3515  -22.3443 C   0  0  0  0  0  0  0  0  0  0  0  0
    0.1198  -53.1553  -21.2408 C   0  0  0  0  0  0  0  0  0  0  0  0
   -0.4842  -54.3921  -21.3241 C   0  0  0  0  0  0  0  0  0  0  0  0
   -0.9320  -54.8684  -22.5386 C   0  0  0  0  0  0  0  0  0  0  0  0
   -0.7597  -54.0794  -23.6548 C   0  0  0  0  0  0  0  0  0  0  0  0
   -0.1570  -52.8441  -23.5727 C   0  0  0  0  0  0  0  0  0  0  0  0
    0.9327  -51.0299  -22.2963 C   0  0  0  0  0  0  0  0  0  0  0  0
    1.1271  -48.8147  -21.1720 C   0  0  0  0  0  0  0  0  0  0  0  0
    0.4745  -50.2015  -21.1138 C   0  0  0  0  0  0  0  0  0  0  0  0
    0.0304  -52.0386  -24.6528 O   0  0  0  0  0  0  0  0  0  0  0  0
    0.8574  -52.2261  -25.7437 C   0  0  0  0  0  0  0  0  0  0  0  0
    1.8104  -51.1006  -25.9966 C   0  0  0  0  0  0  0  0  0  0  0  0
    0.0673  -52.4893  -27.0058 C   0  0  0  0  0  0  0  0  0  0  0  0
    0.6067  -52.4845  -28.1678 N   0  0  0  0  0  0  0  0  0  0  0  0
   -0.3651  -52.7606  -29.1829 C   0  0  0  0  0  0  0  0  0  0  0  0
   -1.7010  -52.6915  -28.4779 C   0  0  0  0  0  0  0  0  0  0  0  0
   -1.3154  -52.7663  -27.0922 N   0  0  0  0  0  0  0  0  0  0  0  0
   -1.9566  -52.9908  -26.2738 H   0  0  0  0  0  0  0  0  0  0  0  0
  8  9  1  0  0  0
  9  7  1  0  0  0
  7  1  1  0  0  0
  1  2  2  0  0  0
  2  3  1  0  0  0
  3  4  2  0  0  0
  4  5  1  0  0  0
  5  6  2  0  0  0
  6 10  1  0  0  0
 10 11  1  0  0  0
 11 12  1  0  0  0
 11 13  1  0  0  0
 13 14  2  0  0  0
 14 15  1  0  0  0
 15 16  1  0  0  0
 16 17  1  0  0  0
  6  1  1  0  0  0
 17 13  1  0  0  0
 17 18  1  0  0  0
M  END
> <minimizedAffinity>
-6.49111

> <CNNscore>
0.4062061608

> <CNNaffinity>
5.3616333008

> <CNN_VS>
2.1779284477

> <CNNaffinity_variance>
0.0633799583

$$$$
[H]c1c([H])c([H])c(C([H])([H])C([H])([H])C([H])([H])[H])c(OC([H])(C2=NC([H])([H])C([H])([H])N2[H])C([H])([H])[H])c1[H]


 18 19  0  0  0  0  0  0  0  0999 V2000
    0.9582  -51.6589  -21.9067 C   0  0  0  0  0  0  0  0  0  0  0  0
    0.9495  -51.0037  -20.6954 C   0  0  0  0  0  0  0  0  0  0  0  0
    0.3869  -51.5574  -19.5648 C   0  0  0  0  0  0  0  0  0  0  0  0
   -0.1938  -52.8074  -19.6161 C   0  0  0  0  0  0  0  0  0  0  0  0
   -0.1952  -53.4794  -20.8188 C   0  0  0  0  0  0  0  0  0  0  0  0
    0.3661  -52.9274  -21.9484 C   0  0  0  0  0  0  0  0  0  0  0  0
    1.5405  -51.1026  -23.1312 C   0  0  0  0  0  0  0  0  0  0  0  0
    3.4132  -52.3772  -24.1692 C   0  0  0  0  0  0  0  0  0  0  0  0
    3.0463  -51.2561  -23.1889 C   0  0  0  0  0  0  0  0  0  0  0  0
    0.3838  -53.5616  -23.1518 O   0  0  0  0  0  0  0  0  0  0  0  0
   -0.6786  -53.9482  -23.9462 C   0  0  0  0  0  0  0  0  0  0  0  0
   -1.1360  -55.3553  -23.7232 C   0  0  0  0  0  0  0  0  0  0  0  0
   -0.3755  -53.7608  -25.4157 C   0  0  0  0  0  0  0  0  0  0  0  0
    0.7138  -54.1712  -25.9505 N   0  0  0  0  0  0  0  0  0  0  0  0
    0.7430  -53.8647  -27.3492 C   0  0  0  0  0  0  0  0  0  0  0  0
   -0.4322  -52.9402  -27.5739 C   0  0  0  0  0  0  0  0  0  0  0  0
   -1.2046  -53.1363  -26.3741 N   0  0  0  0  0  0  0  0  0  0  0  0
   -2.2219  -52.8608  -26.2309 H   0  0  0  0  0  0  0  0  0  0  0  0
  8  9  1  0  0  0
  9  7  1  0  0  0
  7  1  1  0  0  0
  1  2  2  0  0  0
  2  3  1  0  0  0
  3  4  2  0  0  0
  4  5  1  0  0  0
  5  6  2  0  0  0
  6 10  1  0  0  0
 10 11  1  0  0  0
 11 12  1  0  0  0
 11 13  1  0  0  0
 13 14  2  0  0  0
 14 15  1  0  0  0
 15 16  1  0  0  0
 16 17  1  0  0  0
  6  1  1  0  0  0
 17 13  1  0  0  0
 17 18  1  0  0  0
M  END
> <minimizedAffinity>
-5.72786

> <CNNscore>
0.4046422839

> <CNNaffinity>
5.2046785355

> <CNN_VS>
2.1060330868

> <CNNaffinity_variance>
0.2623196244

$$$$
[H]c1c([H])c([H])c(C([H])([H])C([H])([H])C([H])([H])[H])c(OC([H])(C2=NC([H])([H])C([H])([H])N2[H])C([H])([H])[H])c1[H]


 18 19  0  0  0  0  0  0  0  0999 V2000
    0.8727  -53.0393  -25.4308 C   0  0  0  0  0  0  0  0  0  0  0  0
    1.8890  -52.9739  -26.3578 C   0  0  0  0  0  0  0  0  0  0  0  0
    3.1952  -52.7160  -25.9988 C   0  0  0  0  0  0  0  0  0  0  0  0
    3.5269  -52.5127  -24.6756 C   0  0  0  0  0  0  0  0  0  0  0  0
    2.5243  -52.5742  -23.7327 C   0  0  0  0  0  0  0  0  0  0  0  0
    1.2197  -52.8314  -24.0900 C   0  0  0  0  0  0  0  0  0  0  0  0
   -0.5276  -53.3052  -25.7724 C   0  0  0  0  0  0  0  0  0  0  0  0
   -1.4048  -52.6542  -28.0120 C   0  0  0  0  0  0  0  0  0  0  0  0
   -1.1609  -52.1855  -26.5721 C   0  0  0  0  0  0  0  0  0  0  0  0
    0.2046  -52.9002  -23.1870 O   0  0  0  0  0  0  0  0  0  0  0  0
    0.0198  -53.7991  -22.1540 C   0  0  0  0  0  0  0  0  0  0  0  0
   -1.1541  -54.7099  -22.3310 C   0  0  0  0  0  0  0  0  0  0  0  0
   -0.1023  -53.0996  -20.8190 C   0  0  0  0  0  0  0  0  0  0  0  0
    0.5903  -52.0643  -20.5197 N   0  0  0  0  0  0  0  0  0  0  0  0
    0.2793  -51.6064  -19.1989 C   0  0  0  0  0  0  0  0  0  0  0  0
   -0.5682  -52.7018  -18.5921 C   0  0  0  0  0  0  0  0  0  0  0  0
   -0.9549  -53.4623  -19.7524 N   0  0  0  0  0  0  0  0  0  0  0  0
   -1.7441  -54.1736  -19.8018 H   0  0  0  0  0  0  0  0  0  0  0  0
  8  9  1  0  0  0
  9  7  1  0  0  0
  7  1  1  0  0  0
  1  2  2  0  0  0
  2  3  1  0  0  0
  3  4  2  0  0  0
  4  5  1  0  0  0
  5  6  2  0  0  0
  6 10  1  0  0  0
 10 11  1  0  0  0
 11 12  1  0  0  0
 11 13  1  0  0  0
 13 14  2  0  0  0
 14 15  1  0  0  0
 15 16  1  0  0  0
 16 17  1  0  0  0
  6  1  1  0  0  0
 17 13  1  0  0  0
 17 18  1  0  0  0
M  END
> <minimizedAffinity>
-5.85438

> <CNNscore>
0.3959893286

> <CNNaffinity>
5.1991577148

> <CNN_VS>
2.0588109493

> <CNNaffinity_variance>
0.0944920778

$$$$
[H]c1c([H])c([H])c(C([H])([H])C([H])([H])C([H])([H])[H])c(OC([H])(C2=NC([H])([H])C([H])([H])N2[H])C([H])([H])[H])c1[H]


 18 19  0  0  0  0  0  0  0  0999 V2000
   -0.2237  -51.3733  -17.7307 C   0  0  0  0  0  0  0  0  0  0  0  0
    0.0281  -50.2758  -16.9379 C   0  0  0  0  0  0  0  0  0  0  0  0
    0.8615  -49.2539  -17.3411 C   0  0  0  0  0  0  0  0  0  0  0  0
    1.4780  -49.3030  -18.5739 C   0  0  0  0  0  0  0  0  0  0  0  0
    1.2388  -50.3927  -19.3823 C   0  0  0  0  0  0  0  0  0  0  0  0
    0.4070  -51.4137  -18.9806 C   0  0  0  0  0  0  0  0  0  0  0  0
   -1.0979  -52.4816  -17.3365 C   0  0  0  0  0  0  0  0  0  0  0  0
   -3.4691  -52.6244  -16.5843 C   0  0  0  0  0  0  0  0  0  0  0  0
   -2.0692  -52.1025  -16.2377 C   0  0  0  0  0  0  0  0  0  0  0  0
    0.1472  -52.5038  -19.7519 O   0  0  0  0  0  0  0  0  0  0  0  0
   -0.7140  -52.6234  -20.8257 C   0  0  0  0  0  0  0  0  0  0  0  0
   -1.6337  -53.8013  -20.7513 C   0  0  0  0  0  0  0  0  0  0  0  0
    0.0332  -52.6700  -22.1394 C   0  0  0  0  0  0  0  0  0  0  0  0
   -0.4595  -53.2099  -23.1915 N   0  0  0  0  0  0  0  0  0  0  0  0
    0.4553  -53.1166  -24.2895 C   0  0  0  0  0  0  0  0  0  0  0  0
    1.7535  -52.6370  -23.6803 C   0  0  0  0  0  0  0  0  0  0  0  0
    1.3227  -52.1520  -22.3944 N   0  0  0  0  0  0  0  0  0  0  0  0
    1.8758  -51.5148  -21.7468 H   0  0  0  0  0  0  0  0  0  0  0  0
  8  9  1  0  0  0
  9  7  1  0  0  0
  7  1  1  0  0  0
  1  2  2  0  0  0
  2  3  1  0  0  0
  3  4  2  0  0  0
  4  5  1  0  0  0
  5  6  2  0  0  0
  6 10  1  0  0  0
 10 11  1  0  0  0
 11 12  1  0  0  0
 11 13  1  0  0  0
 13 14  2  0  0  0
 14 15  1  0  0  0
 15 16  1  0  0  0
 16 17  1  0  0  0
  6  1  1  0  0  0
 17 13  1  0  0  0
 17 18  1  0  0  0
M  END
> <minimizedAffinity>
-5.22818

> <CNNscore>
0.3704677820

> <CNNaffinity>
4.7420525551

> <CNN_VS>
1.7567776442

> <CNNaffinity_variance>
0.0448480211

$$$$
[H]c1c([H])c([H])c(C([H])([H])C([H])([H])C([H])([H])[H])c(OC([H])(C2=NC([H])([H])C([H])([H])N2[H])C([H])([H])[H])c1[H]


 18 19  0  0  0  0  0  0  0  0999 V2000
   -0.2201  -52.1171  -21.2875 C   0  0  0  0  0  0  0  0  0  0  0  0
   -0.7447  -53.0904  -20.4665 C   0  0  0  0  0  0  0  0  0  0  0  0
   -0.6897  -52.9997  -19.0917 C   0  0  0  0  0  0  0  0  0  0  0  0
   -0.0966  -51.9103  -18.4884 C   0  0  0  0  0  0  0  0  0  0  0  0
    0.4340  -50.9254  -19.2925 C   0  0  0  0  0  0  0  0  0  0  0  0
    0.3799  -51.0150  -20.6654 C   0  0  0  0  0  0  0  0  0  0  0  0
   -0.2537  -52.1791  -22.7514 C   0  0  0  0  0  0  0  0  0  0  0  0
   -0.5766  -53.6165  -24.7611 C   0  0  0  0  0  0  0  0  0  0  0  0
   -0.1704  -53.5954  -23.2822 C   0  0  0  0  0  0  0  0  0  0  0  0
    0.8922  -50.0623  -21.4902 O   0  0  0  0  0  0  0  0  0  0  0  0
    2.1220  -49.4350  -21.4352 C   0  0  0  0  0  0  0  0  0  0  0  0
    2.1533  -48.0808  -22.0710 C   0  0  0  0  0  0  0  0  0  0  0  0
    3.2120  -50.2862  -22.0464 C   0  0  0  0  0  0  0  0  0  0  0  0
    4.0642  -50.9263  -21.3355 N   0  0  0  0  0  0  0  0  0  0  0  0
    4.9817  -51.6481  -22.1650 C   0  0  0  0  0  0  0  0  0  0  0  0
    4.7218  -51.1468  -23.5678 C   0  0  0  0  0  0  0  0  0  0  0  0
    3.4455  -50.4951  -23.4240 N   0  0  0  0  0  0  0  0  0  0  0  0
    2.7900  -50.2180  -24.2145 H   0  0  0  0  0  0  0  0  0  0  0  0
  8  9  1  0  0  0
  9  7  1  0  0  0
  7  1  1  0  0  0
  1  2  2  0  0  0
  2  3  1  0  0  0
  3  4  2  0  0  0
  4  5  1  0  0  0
  5  6  2  0  0  0
  6 10  1  0  0  0
 10 11  1  0  0  0
 11 12  1  0  0  0
 11 13  1  0  0  0
 13 14  2  0  0  0
 14 15  1  0  0  0
 15 16  1  0  0  0
 16 17  1  0  0  0
  6  1  1  0  0  0
 17 13  1  0  0  0
 17 18  1  0  0  0
M  END
> <minimizedAffinity>
-4.90233

> <CNNscore>
0.3702664673

> <CNNaffinity>
4.5809025764

> <CNN_VS>
1.6961545944

> <CNNaffinity_variance>
0.1703631580

$$$$
[H]c1c([H])c([H])c(C([H])([H])C([H])([H])C([H])([H])[H])c(OC([H])(C2=NC([H])([H])C([H])([H])N2[H])C([H])([H])[H])c1[H]


 18 19  0  0  0  0  0  0  0  0999 V2000
    0.0147  -52.9016  -19.5075 C   0  0  0  0  0  0  0  0  0  0  0  0
   -0.6889  -52.8022  -18.3279 C   0  0  0  0  0  0  0  0  0  0  0  0
   -0.5622  -51.7173  -17.4861 C   0  0  0  0  0  0  0  0  0  0  0  0
    0.2890  -50.6810  -17.8085 C   0  0  0  0  0  0  0  0  0  0  0  0
    1.0018  -50.7614  -18.9847 C   0  0  0  0  0  0  0  0  0  0  0  0
    0.8762  -51.8443  -19.8258 C   0  0  0  0  0  0  0  0  0  0  0  0
   -0.0880  -54.0394  -20.4256 C   0  0  0  0  0  0  0  0  0  0  0  0
   -1.1461  -54.8014  -22.5489 C   0  0  0  0  0  0  0  0  0  0  0  0
   -1.3606  -54.0197  -21.2468 C   0  0  0  0  0  0  0  0  0  0  0  0
    1.5630  -51.9573  -20.9946 O   0  0  0  0  0  0  0  0  0  0  0  0
    1.7820  -51.0033  -21.9698 C   0  0  0  0  0  0  0  0  0  0  0  0
    1.1645  -51.3221  -23.2949 C   0  0  0  0  0  0  0  0  0  0  0  0
    3.2568  -50.7366  -22.1703 C   0  0  0  0  0  0  0  0  0  0  0  0
    3.6990  -49.6190  -22.6137 N   0  0  0  0  0  0  0  0  0  0  0  0
    5.1280  -49.6364  -22.7074 C   0  0  0  0  0  0  0  0  0  0  0  0
    5.5195  -51.0794  -22.4821 C   0  0  0  0  0  0  0  0  0  0  0  0
    4.3179  -51.6330  -21.9127 N   0  0  0  0  0  0  0  0  0  0  0  0
    4.2392  -52.5553  -21.3887 H   0  0  0  0  0  0  0  0  0  0  0  0
  8  9  1  0  0  0
  9  7  1  0  0  0
  7  1  1  0  0  0
  1  2  2  0  0  0
  2  3  1  0  0  0
  3  4  2  0  0  0
  4  5  1  0  0  0
  5  6  2  0  0  0
  6 10  1  0  0  0
 10 11  1  0  0  0
 11 12  1  0  0  0
 11 13  1  0  0  0
 13 14  2  0  0  0
 14 15  1  0  0  0
 15 16  1  0  0  0
 16 17  1  0  0  0
  6  1  1  0  0  0
 17 13  1  0  0  0
 17 18  1  0  0  0
M  END
> <minimizedAffinity>
-5.04385

> <CNNscore>
0.3695870936

> <CNNaffinity>
4.5367345810

> <CNN_VS>
1.6767185926

> <CNNaffinity_variance>
0.1716113240

$$$$
[H]c1c([H])c([H])c(C([H])([H])C([H])([H])C([H])([H])[H])c(OC([H])(C2=NC([H])([H])C([H])([H])N2[H])C([H])([H])[H])c1[H]


 18 19  0  0  0  0  0  0  0  0999 V2000
    1.3943  -52.1729  -22.3371 C   0  0  0  0  0  0  0  0  0  0  0  0
    2.3522  -51.7542  -21.4407 C   0  0  0  0  0  0  0  0  0  0  0  0
    3.6625  -51.5391  -21.8128 C   0  0  0  0  0  0  0  0  0  0  0  0
    4.0580  -51.7409  -23.1187 C   0  0  0  0  0  0  0  0  0  0  0  0
    3.1144  -52.1596  -24.0310 C   0  0  0  0  0  0  0  0  0  0  0  0
    1.8059  -52.3749  -23.6605 C   0  0  0  0  0  0  0  0  0  0  0  0
   -0.0060  -52.4177  -21.9801 C   0  0  0  0  0  0  0  0  0  0  0  0
   -1.6034  -53.8221  -20.6823 C   0  0  0  0  0  0  0  0  0  0  0  0
   -0.2231  -53.7777  -21.3495 C   0  0  0  0  0  0  0  0  0  0  0  0
    0.8476  -52.7874  -24.5334 O   0  0  0  0  0  0  0  0  0  0  0  0
    0.2441  -52.0837  -25.5579 C   0  0  0  0  0  0  0  0  0  0  0  0
   -1.2446  -51.9843  -25.4452 C   0  0  0  0  0  0  0  0  0  0  0  0
    0.5936  -52.6576  -26.9125 C   0  0  0  0  0  0  0  0  0  0  0  0
   -0.1562  -52.5012  -27.9394 N   0  0  0  0  0  0  0  0  0  0  0  0
    0.4086  -53.1455  -29.0869 C   0  0  0  0  0  0  0  0  0  0  0  0
    1.5513  -53.9768  -28.5487 C   0  0  0  0  0  0  0  0  0  0  0  0
    1.7414  -53.4151  -27.2361 N   0  0  0  0  0  0  0  0  0  0  0  0
    2.5954  -53.5454  -26.6157 H   0  0  0  0  0  0  0  0  0  0  0  0
  8  9  1  0  0  0
  9  7  1  0  0  0
  7  1  1  0  0  0
  1  2  2  0  0  0
  2  3  1  0  0  0
  3  4  2  0  0  0
  4  5  1  0  0  0
  5  6  2  0  0  0
  6 10  1  0  0  0
 10 11  1  0  0  0
 11 12  1  0  0  0
 11 13  1  0  0  0
 13 14  2  0  0  0
 14 15  1  0  0  0
 15 16  1  0  0  0
 16 17  1  0  0  0
  6  1  1  0  0  0
 17 13  1  0  0  0
 17 18  1  0  0  0
M  END
> <minimizedAffinity>
-5.48280

> <CNNscore>
0.3487199545

> <CNNaffinity>
5.1887979507

> <CNN_VS>
1.8094373941

> <CNNaffinity_variance>
0.1779540926

$$$$
[H]c1c([H])c([H])c(C([H])([H])C([H])([H])C([H])([H])[H])c(OC([H])(C2=NC([H])([H])C([H])([H])N2[H])C([H])([H])[H])c1[H]


 18 19  0  0  0  0  0  0  0  0999 V2000
   -0.4208  -52.3268  -20.4661 C   0  0  0  0  0  0  0  0  0  0  0  0
   -0.7248  -52.8313  -19.2214 C   0  0  0  0  0  0  0  0  0  0  0  0
   -0.3148  -52.2142  -18.0584 C   0  0  0  0  0  0  0  0  0  0  0  0
    0.4253  -51.0515  -18.1102 C   0  0  0  0  0  0  0  0  0  0  0  0
    0.7398  -50.5304  -19.3462 C   0  0  0  0  0  0  0  0  0  0  0  0
    0.3311  -51.1459  -20.5081 C   0  0  0  0  0  0  0  0  0  0  0  0
   -0.8328  -52.9554  -21.7244 C   0  0  0  0  0  0  0  0  0  0  0  0
   -1.2691  -55.1086  -22.8999 C   0  0  0  0  0  0  0  0  0  0  0  0
   -0.4458  -54.4176  -21.8058 C   0  0  0  0  0  0  0  0  0  0  0  0
    0.6221  -50.6602  -21.7450 O   0  0  0  0  0  0  0  0  0  0  0  0
    1.8180  -50.7019  -22.4359 C   0  0  0  0  0  0  0  0  0  0  0  0
    2.8721  -51.5484  -21.7946 C   0  0  0  0  0  0  0  0  0  0  0  0
    2.3786  -49.3169  -22.6678 C   0  0  0  0  0  0  0  0  0  0  0  0
    1.9689  -48.2919  -22.0175 N   0  0  0  0  0  0  0  0  0  0  0  0
    2.6646  -47.1115  -22.4341 C   0  0  0  0  0  0  0  0  0  0  0  0
    3.4310  -47.5224  -23.6711 C   0  0  0  0  0  0  0  0  0  0  0  0
    3.3878  -48.9597  -23.5897 N   0  0  0  0  0  0  0  0  0  0  0  0
    4.0062  -49.6374  -24.1278 H   0  0  0  0  0  0  0  0  0  0  0  0
  8  9  1  0  0  0
  9  7  1  0  0  0
  7  1  1  0  0  0
  1  2  2  0  0  0
  2  3  1  0  0  0
  3  4  2  0  0  0
  4  5  1  0  0  0
  5  6  2  0  0  0
  6 10  1  0  0  0
 10 11  1  0  0  0
 11 12  1  0  0  0
 11 13  1  0  0  0
 13 14  2  0  0  0
 14 15  1  0  0  0
 15 16  1  0  0  0
 16 17  1  0  0  0
  6  1  1  0  0  0
 17 13  1  0  0  0
 17 18  1  0  0  0
M  END
> <minimizedAffinity>
-4.95100

> <CNNscore>
0.3408837616

> <CNNaffinity>
4.6085810661

> <CNN_VS>
1.5709904432

> <CNNaffinity_variance>
0.0796542913

$$$$
[H]C1=C2C([H])([H])C([H])([H])C([H])([H])C([H])([H])[C@]2([H])/C(=C(\[H])C([H])([H])C2([H])C([H])([H])C([H])([H])C(C([H])([H])[H])(C([H])([H])[H])[N+]2(C([H])([H])[H])C([H])([H])[H])[C@]2([H])[C@@]1([H])C(=O)O[C@@]2([H])C([H])([H])[H]


 26 29  0  0  0  0  0  0  0  0999 V2000
   -0.5798  -52.2953  -27.4900 C   0  0  0  0  0  0  0  0  0  0  0  0
    0.7367  -52.4667  -26.6805 C   0  0  0  0  0  0  0  0  0  0  0  0
    1.1557  -53.7687  -27.0026 O   0  0  0  0  0  0  0  0  0  0  0  0
    0.2938  -54.5939  -26.2832 C   0  0  0  0  0  0  0  0  0  0  0  0
    0.2612  -55.8405  -26.3885 O   0  0  0  0  0  0  0  0  0  0  0  0
   -0.5466  -53.7487  -25.4022 C   0  0  0  0  0  0  0  0  0  0  0  0
   -0.9761  -54.3371  -24.1635 C   0  0  0  0  0  0  0  0  0  0  0  0
   -0.5074  -54.0752  -22.9912 C   0  0  0  0  0  0  0  0  0  0  0  0
   -1.0105  -54.7286  -21.7593 C   0  0  0  0  0  0  0  0  0  0  0  0
   -0.8939  -53.7097  -20.6336 C   0  0  0  0  0  0  0  0  0  0  0  0
   -1.0377  -52.3060  -21.1277 C   0  0  0  0  0  0  0  0  0  0  0  0
   -0.0602  -51.8781  -22.1668 C   0  0  0  0  0  0  0  0  0  0  0  0
    0.5600  -53.1053  -22.8305 C   0  0  0  0  0  0  0  0  0  0  0  0
    1.2095  -52.6584  -24.1387 C   0  0  0  0  0  0  0  0  0  0  0  0
    2.4743  -52.4148  -23.9847 C   0  0  0  0  0  0  0  0  0  0  0  0
    0.3914  -52.5174  -25.2761 C   0  0  0  0  0  0  0  0  0  0  0  0
    3.3923  -51.9799  -25.0046 C   0  0  0  0  0  0  0  0  0  0  0  0
    3.8993  -50.5695  -24.5534 C   0  0  0  0  0  0  0  0  0  0  0  0
    2.9285  -49.9773  -23.5699 C   0  0  0  0  0  0  0  0  0  0  0  0
    3.6764  -50.1931  -22.2536 C   0  0  0  0  0  0  0  0  0  0  0  0
    5.0932  -49.8771  -22.7082 C   0  0  0  0  0  0  0  0  0  0  0  0
    5.1631  -48.3823  -22.9264 C   0  0  0  0  0  0  0  0  0  0  0  0
    6.1267  -50.2667  -21.7019 C   0  0  0  0  0  0  0  0  0  0  0  0
    5.1789  -50.6244  -23.9447 N   0  0  0  0  0  0  0  0  0  0  0  0
    6.1033  -49.8636  -24.8034 C   0  0  0  0  0  0  0  0  0  0  0  0
    5.7556  -51.9218  -23.7775 C   0  0  0  0  0  0  0  0  0  0  0  0
  1  2  1  0  0  0
  2  3  1  0  0  0
  3  4  1  0  0  0
  4  5  2  0  0  0
  4  6  1  0  0  0
  6  7  1  0  0  0
  7  8  2  0  0  0
  8  9  1  0  0  0
  9 10  1  0  0  0
 10 11  1  0  0  0
 11 12  1  0  0  0
 12 13  1  0  0  0
 13 14  1  0  0  0
 14 15  2  0  0  0
 15 17  1  0  0  0
 17 18  1  0  0  0
 18 19  1  0  0  0
 19 20  1  0  0  0
 20 21  1  0  0  0
 21 22  1  0  0  0
 21 23  1  0  0  0
 21 24  1  0  0  0
 24 25  1  0  0  0
 24 26  1  0  0  0
 14 16  1  0  0  0
 16  2  1  0  0  0
 16  6  1  0  0  0
 13  8  1  0  0  0
 24 18  1  0  0  0
M  CHG 1  24   1
M  END
> <minimizedAffinity>
-9.09547

> <CNNscore>
0.4685935974

> <CNNaffinity>
6.6189575195

> <CNN_VS>
3.1016011238

> <CNNaffinity_variance>
0.0813747719

$$$$
[H]C1=C2C([H])([H])C([H])([H])C([H])([H])C([H])([H])[C@]2([H])/C(=C(\[H])C([H])([H])C2([H])C([H])([H])C([H])([H])C(C([H])([H])[H])(C([H])([H])[H])[N+]2(C([H])([H])[H])C([H])([H])[H])[C@]2([H])[C@@]1([H])C(=O)O[C@@]2([H])C([H])([H])[H]


 26 29  0  0  0  0  0  0  0  0999 V2000
   -1.8484  -52.3811  -21.6186 C   0  0  0  0  0  0  0  0  0  0  0  0
   -0.3763  -51.8956  -21.7413 C   0  0  0  0  0  0  0  0  0  0  0  0
    0.3658  -53.0888  -21.7486 O   0  0  0  0  0  0  0  0  0  0  0  0
    0.3385  -53.5175  -20.4232 C   0  0  0  0  0  0  0  0  0  0  0  0
    0.7916  -54.6153  -20.0288 O   0  0  0  0  0  0  0  0  0  0  0  0
   -0.3046  -52.4673  -19.5983 C   0  0  0  0  0  0  0  0  0  0  0  0
    0.1381  -52.3572  -18.2356 C   0  0  0  0  0  0  0  0  0  0  0  0
    0.9098  -51.4426  -17.7555 C   0  0  0  0  0  0  0  0  0  0  0  0
    1.3183  -51.4011  -16.3310 C   0  0  0  0  0  0  0  0  0  0  0  0
    1.4706  -49.9338  -15.9525 C   0  0  0  0  0  0  0  0  0  0  0  0
    0.5510  -49.0522  -16.7349 C   0  0  0  0  0  0  0  0  0  0  0  0
    0.6989  -49.1080  -18.2159 C   0  0  0  0  0  0  0  0  0  0  0  0
    1.4216  -50.3921  -18.6158 C   0  0  0  0  0  0  0  0  0  0  0  0
    1.1835  -50.6245  -20.1066 C   0  0  0  0  0  0  0  0  0  0  0  0
    2.1554  -50.1524  -20.8244 C   0  0  0  0  0  0  0  0  0  0  0  0
   -0.0209  -51.2372  -20.5026 C   0  0  0  0  0  0  0  0  0  0  0  0
    2.2613  -50.2008  -22.2592 C   0  0  0  0  0  0  0  0  0  0  0  0
    3.4147  -51.2118  -22.5711 C   0  0  0  0  0  0  0  0  0  0  0  0
    3.0420  -52.0469  -23.7646 C   0  0  0  0  0  0  0  0  0  0  0  0
    3.8959  -51.3978  -24.8547 C   0  0  0  0  0  0  0  0  0  0  0  0
    5.1689  -51.1383  -24.0635 C   0  0  0  0  0  0  0  0  0  0  0  0
    5.8275  -52.4802  -23.8351 C   0  0  0  0  0  0  0  0  0  0  0  0
    6.1280  -50.2461  -24.7824 C   0  0  0  0  0  0  0  0  0  0  0  0
    4.6447  -50.5611  -22.8441 N   0  0  0  0  0  0  0  0  0  0  0  0
    5.5896  -50.9521  -21.7834 C   0  0  0  0  0  0  0  0  0  0  0  0
    4.6250  -49.1318  -22.8629 C   0  0  0  0  0  0  0  0  0  0  0  0
  1  2  1  0  0  0
  2  3  1  0  0  0
  3  4  1  0  0  0
  4  5  2  0  0  0
  4  6  1  0  0  0
  6  7  1  0  0  0
  7  8  2  0  0  0
  8  9  1  0  0  0
  9 10  1  0  0  0
 10 11  1  0  0  0
 11 12  1  0  0  0
 12 13  1  0  0  0
 13 14  1  0  0  0
 14 15  2  0  0  0
 15 17  1  0  0  0
 17 18  1  0  0  0
 18 19  1  0  0  0
 19 20  1  0  0  0
 20 21  1  0  0  0
 21 22  1  0  0  0
 21 23  1  0  0  0
 21 24  1  0  0  0
 24 25  1  0  0  0
 24 26  1  0  0  0
 14 16  1  0  0  0
 16  2  1  0  0  0
 16  6  1  0  0  0
 13  8  1  0  0  0
 24 18  1  0  0  0
M  CHG 1  24   1
M  END
> <minimizedAffinity>
-5.32266

> <CNNscore>
0.4347414672

> <CNNaffinity>
6.0156121254

> <CNN_VS>
2.6152360439

> <CNNaffinity_variance>
0.2311229706

$$$$
[H]C1=C2C([H])([H])C([H])([H])C([H])([H])C([H])([H])[C@]2([H])/C(=C(\[H])C([H])([H])C2([H])C([H])([H])C([H])([H])C(C([H])([H])[H])(C([H])([H])[H])[N+]2(C([H])([H])[H])C([H])([H])[H])[C@]2([H])[C@@]1([H])C(=O)O[C@@]2([H])C([H])([H])[H]


 26 29  0  0  0  0  0  0  0  0999 V2000
   -2.2759  -51.9559  -22.1595 C   0  0  0  0  0  0  0  0  0  0  0  0
   -0.8531  -51.4915  -22.5811 C   0  0  0  0  0  0  0  0  0  0  0  0
   -0.1880  -52.6929  -22.8798 O   0  0  0  0  0  0  0  0  0  0  0  0
    0.0765  -53.2570  -21.6336 C   0  0  0  0  0  0  0  0  0  0  0  0
    0.5593  -54.3994  -21.4661 O   0  0  0  0  0  0  0  0  0  0  0  0
   -0.3072  -52.2855  -20.5821 C   0  0  0  0  0  0  0  0  0  0  0  0
    0.4470  -52.3277  -19.3596 C   0  0  0  0  0  0  0  0  0  0  0  0
    1.3502  -51.4848  -18.9907 C   0  0  0  0  0  0  0  0  0  0  0  0
    2.0826  -51.6010  -17.7070 C   0  0  0  0  0  0  0  0  0  0  0  0
    2.3856  -50.1849  -17.2358 C   0  0  0  0  0  0  0  0  0  0  0  0
    1.3491  -49.2071  -17.6882 C   0  0  0  0  0  0  0  0  0  0  0  0
    1.1432  -49.1109  -19.1603 C   0  0  0  0  0  0  0  0  0  0  0  0
    1.6933  -50.3612  -19.8425 C   0  0  0  0  0  0  0  0  0  0  0  0
    1.1023  -50.4315  -21.2492 C   0  0  0  0  0  0  0  0  0  0  0  0
    1.8993  -49.9076  -22.1284 C   0  0  0  0  0  0  0  0  0  0  0  0
   -0.1879  -50.9738  -21.4048 C   0  0  0  0  0  0  0  0  0  0  0  0
    1.6638  -49.8080  -23.5450 C   0  0  0  0  0  0  0  0  0  0  0  0
    3.0689  -49.5931  -24.2002 C   0  0  0  0  0  0  0  0  0  0  0  0
    3.9883  -48.9305  -23.2121 C   0  0  0  0  0  0  0  0  0  0  0  0
    4.8499  -50.1153  -22.7734 C   0  0  0  0  0  0  0  0  0  0  0  0
    5.0168  -50.8208  -24.1107 C   0  0  0  0  0  0  0  0  0  0  0  0
    5.9556  -49.9750  -24.9414 C   0  0  0  0  0  0  0  0  0  0  0  0
    5.5943  -52.1922  -23.9759 C   0  0  0  0  0  0  0  0  0  0  0  0
    3.6618  -50.8111  -24.6194 N   0  0  0  0  0  0  0  0  0  0  0  0
    3.7903  -50.7515  -26.0859 C   0  0  0  0  0  0  0  0  0  0  0  0
    2.9426  -52.0107  -24.3237 C   0  0  0  0  0  0  0  0  0  0  0  0
  1  2  1  0  0  0
  2  3  1  0  0  0
  3  4  1  0  0  0
  4  5  2  0  0  0
  4  6  1  0  0  0
  6  7  1  0  0  0
  7  8  2  0  0  0
  8  9  1  0  0  0
  9 10  1  0  0  0
 10 11  1  0  0  0
 11 12  1  0  0  0
 12 13  1  0  0  0
 13 14  1  0  0  0
 14 15  2  0  0  0
 15 17  1  0  0  0
 17 18  1  0  0  0
 18 19  1  0  0  0
 19 20  1  0  0  0
 20 21  1  0  0  0
 21 22  1  0  0  0
 21 23  1  0  0  0
 21 24  1  0  0  0
 24 25  1  0  0  0
 24 26  1  0  0  0
 14 16  1  0  0  0
 16  2  1  0  0  0
 16  6  1  0  0  0
 13  8  1  0  0  0
 24 18  1  0  0  0
M  CHG 1  24   1
M  END
> <minimizedAffinity>
-3.07182

> <CNNscore>
0.4325489104

> <CNNaffinity>
6.1403331757

> <CNN_VS>
2.6559944153

> <CNNaffinity_variance>
0.8384410739

$$$$
[H]C1=C2C([H])([H])C([H])([H])C([H])([H])C([H])([H])[C@]2([H])/C(=C(\[H])C([H])([H])C2([H])C([H])([H])C([H])([H])C(C([H])([H])[H])(C([H])([H])[H])[N+]2(C([H])([H])[H])C([H])([H])[H])[C@]2([H])[C@@]1([H])C(=O)O[C@@]2([H])C([H])([H])[H]


 26 29  0  0  0  0  0  0  0  0999 V2000
   -1.4444  -52.0816  -25.9674 C   0  0  0  0  0  0  0  0  0  0  0  0
    0.0174  -52.4142  -25.5548 C   0  0  0  0  0  0  0  0  0  0  0  0
    0.0856  -53.8124  -25.6775 O   0  0  0  0  0  0  0  0  0  0  0  0
   -0.6159  -54.2881  -24.5716 C   0  0  0  0  0  0  0  0  0  0  0  0
   -0.8871  -55.4939  -24.3753 O   0  0  0  0  0  0  0  0  0  0  0  0
   -0.9677  -53.1396  -23.7033 C   0  0  0  0  0  0  0  0  0  0  0  0
   -1.0573  -53.4016  -22.2932 C   0  0  0  0  0  0  0  0  0  0  0  0
   -0.1928  -53.0645  -21.3980 C   0  0  0  0  0  0  0  0  0  0  0  0
   -0.3638  -53.3732  -19.9581 C   0  0  0  0  0  0  0  0  0  0  0  0
    0.2834  -52.2369  -19.1777 C   0  0  0  0  0  0  0  0  0  0  0  0
    0.2197  -50.9387  -19.9165 C   0  0  0  0  0  0  0  0  0  0  0  0
    0.8578  -50.9233  -21.2622 C   0  0  0  0  0  0  0  0  0  0  0  0
    1.0130  -52.3521  -21.7777 C   0  0  0  0  0  0  0  0  0  0  0  0
    1.2609  -52.2876  -23.2834 C   0  0  0  0  0  0  0  0  0  0  0  0
    2.5278  -52.3183  -23.5603 C   0  0  0  0  0  0  0  0  0  0  0  0
    0.1496  -52.1524  -24.1376 C   0  0  0  0  0  0  0  0  0  0  0  0
    3.1181  -52.2793  -24.8726 C   0  0  0  0  0  0  0  0  0  0  0  0
    3.8662  -50.9077  -24.9669 C   0  0  0  0  0  0  0  0  0  0  0  0
    2.8645  -49.7866  -24.9492 C   0  0  0  0  0  0  0  0  0  0  0  0
    3.0144  -49.2822  -23.5134 C   0  0  0  0  0  0  0  0  0  0  0  0
    4.5233  -49.3952  -23.3575 C   0  0  0  0  0  0  0  0  0  0  0  0
    5.1368  -48.2963  -24.1959 C   0  0  0  0  0  0  0  0  0  0  0  0
    4.9751  -49.2320  -21.9426 C   0  0  0  0  0  0  0  0  0  0  0  0
    4.7768  -50.7141  -23.8972 N   0  0  0  0  0  0  0  0  0  0  0  0
    6.1280  -50.6496  -24.4811 C   0  0  0  0  0  0  0  0  0  0  0  0
    4.8163  -51.7327  -22.8949 C   0  0  0  0  0  0  0  0  0  0  0  0
  1  2  1  0  0  0
  2  3  1  0  0  0
  3  4  1  0  0  0
  4  5  2  0  0  0
  4  6  1  0  0  0
  6  7  1  0  0  0
  7  8  2  0  0  0
  8  9  1  0  0  0
  9 10  1  0  0  0
 10 11  1  0  0  0
 11 12  1  0  0  0
 12 13  1  0  0  0
 13 14  1  0  0  0
 14 15  2  0  0  0
 15 17  1  0  0  0
 17 18  1  0  0  0
 18 19  1  0  0  0
 19 20  1  0  0  0
 20 21  1  0  0  0
 21 22  1  0  0  0
 21 23  1  0  0  0
 21 24  1  0  0  0
 24 25  1  0  0  0
 24 26  1  0  0  0
 14 16  1  0  0  0
 16  2  1  0  0  0
 16  6  1  0  0  0
 13  8  1  0  0  0
 24 18  1  0  0  0
M  CHG 1  24   1
M  END
> <minimizedAffinity>
-8.48507

> <CNNscore>
0.4235519767

> <CNNaffinity>
6.5775575638

> <CNN_VS>
2.7859375477

> <CNNaffinity_variance>
0.2333879173

$$$$
[H]C1=C2C([H])([H])C([H])([H])C([H])([H])C([H])([H])[C@]2([H])/C(=C(\[H])C([H])([H])C2([H])C([H])([H])C([H])([H])C(C([H])([H])[H])(C([H])([H])[H])[N+]2(C([H])([H])[H])C([H])([H])[H])[C@]2([H])[C@@]1([H])C(=O)O[C@@]2([H])C([H])([H])[H]


 26 29  0  0  0  0  0  0  0  0999 V2000
   -0.5222  -52.3088  -29.2116 C   0  0  0  0  0  0  0  0  0  0  0  0
    0.5132  -51.9916  -28.0957 C   0  0  0  0  0  0  0  0  0  0  0  0
    1.6452  -52.7329  -28.4745 O   0  0  0  0  0  0  0  0  0  0  0  0
    1.3135  -54.0493  -28.1608 C   0  0  0  0  0  0  0  0  0  0  0  0
    2.0170  -55.0418  -28.4546 O   0  0  0  0  0  0  0  0  0  0  0  0
    0.0183  -54.0532  -27.4402 C   0  0  0  0  0  0  0  0  0  0  0  0
   -0.1798  -55.1006  -26.4765 C   0  0  0  0  0  0  0  0  0  0  0  0
   -0.1308  -54.9769  -25.1941 C   0  0  0  0  0  0  0  0  0  0  0  0
   -0.3499  -56.1131  -24.2674 C   0  0  0  0  0  0  0  0  0  0  0  0
   -1.0109  -55.5487  -23.0169 C   0  0  0  0  0  0  0  0  0  0  0  0
   -1.8550  -54.3519  -23.3177 C   0  0  0  0  0  0  0  0  0  0  0  0
   -1.1540  -53.2055  -23.9602 C   0  0  0  0  0  0  0  0  0  0  0  0
    0.1494  -53.6856  -24.5943 C   0  0  0  0  0  0  0  0  0  0  0  0
    0.6162  -52.6183  -25.5822 C   0  0  0  0  0  0  0  0  0  0  0  0
    1.4723  -51.8081  -25.0403 C   0  0  0  0  0  0  0  0  0  0  0  0
    0.0499  -52.6085  -26.8713 C   0  0  0  0  0  0  0  0  0  0  0  0
    2.1184  -50.6924  -25.6804 C   0  0  0  0  0  0  0  0  0  0  0  0
    2.8169  -49.8855  -24.5356 C   0  0  0  0  0  0  0  0  0  0  0  0
    1.9832  -49.9606  -23.2867 C   0  0  0  0  0  0  0  0  0  0  0  0
    2.7746  -50.9804  -22.4667 C   0  0  0  0  0  0  0  0  0  0  0  0
    4.1904  -50.5385  -22.8044 C   0  0  0  0  0  0  0  0  0  0  0  0
    4.4272  -49.2296  -22.0851 C   0  0  0  0  0  0  0  0  0  0  0  0
    5.2260  -51.5232  -22.3680 C   0  0  0  0  0  0  0  0  0  0  0  0
    4.1136  -50.3779  -24.2408 N   0  0  0  0  0  0  0  0  0  0  0  0
    5.0717  -49.3084  -24.5710 C   0  0  0  0  0  0  0  0  0  0  0  0
    4.5385  -51.5388  -24.9589 C   0  0  0  0  0  0  0  0  0  0  0  0
  1  2  1  0  0  0
  2  3  1  0  0  0
  3  4  1  0  0  0
  4  5  2  0  0  0
  4  6  1  0  0  0
  6  7  1  0  0  0
  7  8  2  0  0  0
  8  9  1  0  0  0
  9 10  1  0  0  0
 10 11  1  0  0  0
 11 12  1  0  0  0
 12 13  1  0  0  0
 13 14  1  0  0  0
 14 15  2  0  0  0
 15 17  1  0  0  0
 17 18  1  0  0  0
 18 19  1  0  0  0
 19 20  1  0  0  0
 20 21  1  0  0  0
 21 22  1  0  0  0
 21 23  1  0  0  0
 21 24  1  0  0  0
 24 25  1  0  0  0
 24 26  1  0  0  0
 14 16  1  0  0  0
 16  2  1  0  0  0
 16  6  1  0  0  0
 13  8  1  0  0  0
 24 18  1  0  0  0
M  CHG 1  24   1
M  END
> <minimizedAffinity>
-5.31415

> <CNNscore>
0.4043871164

> <CNNaffinity>
6.5205597878

> <CNN_VS>
2.6368303299

> <CNNaffinity_variance>
0.2756414115

$$$$
[H]C1=C2C([H])([H])C([H])([H])C([H])([H])C([H])([H])[C@]2([H])/C(=C(\[H])C([H])([H])C2([H])C([H])([H])C([H])([H])C(C([H])([H])[H])(C([H])([H])[H])[N+]2(C([H])([H])[H])C([H])([H])[H])[C@]2([H])[C@@]1([H])C(=O)O[C@@]2([H])C([H])([H])[H]


 26 29  0  0  0  0  0  0  0  0999 V2000
   -0.9515  -52.0247  -22.6943 C   0  0  0  0  0  0  0  0  0  0  0  0
    0.5010  -52.0199  -22.1393 C   0  0  0  0  0  0  0  0  0  0  0  0
    0.8034  -53.3843  -21.9924 O   0  0  0  0  0  0  0  0  0  0  0  0
    0.0894  -53.7736  -20.8610 C   0  0  0  0  0  0  0  0  0  0  0  0
   -0.0017  -54.9549  -20.4579 O   0  0  0  0  0  0  0  0  0  0  0  0
   -0.5197  -52.5699  -20.2471 C   0  0  0  0  0  0  0  0  0  0  0  0
   -0.6941  -52.5921  -18.8208 C   0  0  0  0  0  0  0  0  0  0  0  0
    0.0200  -51.9579  -17.9547 C   0  0  0  0  0  0  0  0  0  0  0  0
   -0.2297  -52.0344  -16.4954 C   0  0  0  0  0  0  0  0  0  0  0  0
    0.1531  -50.6837  -15.9053 C   0  0  0  0  0  0  0  0  0  0  0  0
   -0.0504  -49.5665  -16.8776 C   0  0  0  0  0  0  0  0  0  0  0  0
    0.6968  -49.6762  -18.1614 C   0  0  0  0  0  0  0  0  0  0  0  0
    1.1255  -51.1239  -18.3884 C   0  0  0  0  0  0  0  0  0  0  0  0
    1.4959  -51.2823  -19.8618 C   0  0  0  0  0  0  0  0  0  0  0  0
    2.7713  -51.1396  -20.0512 C   0  0  0  0  0  0  0  0  0  0  0  0
    0.4599  -51.4947  -20.7914 C   0  0  0  0  0  0  0  0  0  0  0  0
    3.4647  -51.2290  -21.3095 C   0  0  0  0  0  0  0  0  0  0  0  0
    3.3230  -49.8216  -21.9793 C   0  0  0  0  0  0  0  0  0  0  0  0
    3.8535  -48.7663  -21.0490 C   0  0  0  0  0  0  0  0  0  0  0  0
    5.2067  -48.4614  -21.6927 C   0  0  0  0  0  0  0  0  0  0  0  0
    4.8116  -48.5183  -23.1606 C   0  0  0  0  0  0  0  0  0  0  0  0
    3.9866  -47.2830  -23.4434 C   0  0  0  0  0  0  0  0  0  0  0  0
    5.9899  -48.5324  -24.0793 C   0  0  0  0  0  0  0  0  0  0  0  0
    4.0272  -49.7338  -23.2070 N   0  0  0  0  0  0  0  0  0  0  0  0
    3.0282  -49.5196  -24.2685 C   0  0  0  0  0  0  0  0  0  0  0  0
    4.7899  -50.8796  -23.5933 C   0  0  0  0  0  0  0  0  0  0  0  0
  1  2  1  0  0  0
  2  3  1  0  0  0
  3  4  1  0  0  0
  4  5  2  0  0  0
  4  6  1  0  0  0
  6  7  1  0  0  0
  7  8  2  0  0  0
  8  9  1  0  0  0
  9 10  1  0  0  0
 10 11  1  0  0  0
 11 12  1  0  0  0
 12 13  1  0  0  0
 13 14  1  0  0  0
 14 15  2  0  0  0
 15 17  1  0  0  0
 17 18  1  0  0  0
 18 19  1  0  0  0
 19 20  1  0  0  0
 20 21  1  0  0  0
 21 22  1  0  0  0
 21 23  1  0  0  0
 21 24  1  0  0  0
 24 25  1  0  0  0
 24 26  1  0  0  0
 14 16  1  0  0  0
 16  2  1  0  0  0
 16  6  1  0  0  0
 13  8  1  0  0  0
 24 18  1  0  0  0
M  CHG 1  24   1
M  END
> <minimizedAffinity>
-5.82333

> <CNNscore>
0.3838506639

> <CNNaffinity>
5.8443632126

> <CNN_VS>
2.2433626652

> <CNNaffinity_variance>
0.1508854926

$$$$
[H]C1=C2C([H])([H])C([H])([H])C([H])([H])C([H])([H])[C@]2([H])/C(=C(\[H])C([H])([H])C2([H])C([H])([H])C([H])([H])C(C([H])([H])[H])(C([H])([H])[H])[N+]2(C([H])([H])[H])C([H])([H])[H])[C@]2([H])[C@@]1([H])C(=O)O[C@@]2([H])C([H])([H])[H]


 26 29  0  0  0  0  0  0  0  0999 V2000
   -0.7198  -51.7211  -23.4607 C   0  0  0  0  0  0  0  0  0  0  0  0
    0.6258  -52.0407  -22.7501 C   0  0  0  0  0  0  0  0  0  0  0  0
    0.6919  -53.4440  -22.7828 O   0  0  0  0  0  0  0  0  0  0  0  0
   -0.2223  -53.8528  -21.8141 C   0  0  0  0  0  0  0  0  0  0  0  0
   -0.5484  -55.0440  -21.6118 O   0  0  0  0  0  0  0  0  0  0  0  0
   -0.7178  -52.6555  -21.0944 C   0  0  0  0  0  0  0  0  0  0  0  0
   -1.0882  -52.8385  -19.7180 C   0  0  0  0  0  0  0  0  0  0  0  0
   -0.4113  -52.4586  -18.6886 C   0  0  0  0  0  0  0  0  0  0  0  0
   -0.8682  -52.6859  -17.2967 C   0  0  0  0  0  0  0  0  0  0  0  0
   -0.3674  -51.5128  -16.4648 C   0  0  0  0  0  0  0  0  0  0  0  0
   -0.2610  -50.2570  -17.2692 C   0  0  0  0  0  0  0  0  0  0  0  0
    0.6300  -50.3206  -18.4610 C   0  0  0  0  0  0  0  0  0  0  0  0
    0.8583  -51.7768  -18.8593 C   0  0  0  0  0  0  0  0  0  0  0  0
    1.3992  -51.7975  -20.2876 C   0  0  0  0  0  0  0  0  0  0  0  0
    2.6951  -51.8523  -20.3064 C   0  0  0  0  0  0  0  0  0  0  0  0
    0.4807  -51.7019  -21.3507 C   0  0  0  0  0  0  0  0  0  0  0  0
    3.5331  -51.8902  -21.4762 C   0  0  0  0  0  0  0  0  0  0  0  0
    3.8452  -50.3978  -21.8298 C   0  0  0  0  0  0  0  0  0  0  0  0
    5.0467  -49.9375  -21.0520 C   0  0  0  0  0  0  0  0  0  0  0  0
    6.1270  -49.9717  -22.1338 C   0  0  0  0  0  0  0  0  0  0  0  0
    5.3263  -49.4412  -23.3134 C   0  0  0  0  0  0  0  0  0  0  0  0
    5.1034  -47.9659  -23.0672 C   0  0  0  0  0  0  0  0  0  0  0  0
    6.0331  -49.6112  -24.6188 C   0  0  0  0  0  0  0  0  0  0  0  0
    4.1061  -50.2129  -23.2114 N   0  0  0  0  0  0  0  0  0  0  0  0
    3.0425  -49.3432  -23.7434 C   0  0  0  0  0  0  0  0  0  0  0  0
    4.1150  -51.3875  -24.0262 C   0  0  0  0  0  0  0  0  0  0  0  0
  1  2  1  0  0  0
  2  3  1  0  0  0
  3  4  1  0  0  0
  4  5  2  0  0  0
  4  6  1  0  0  0
  6  7  1  0  0  0
  7  8  2  0  0  0
  8  9  1  0  0  0
  9 10  1  0  0  0
 10 11  1  0  0  0
 11 12  1  0  0  0
 12 13  1  0  0  0
 13 14  1  0  0  0
 14 15  2  0  0  0
 15 17  1  0  0  0
 17 18  1  0  0  0
 18 19  1  0  0  0
 19 20  1  0  0  0
 20 21  1  0  0  0
 21 22  1  0  0  0
 21 23  1  0  0  0
 21 24  1  0  0  0
 24 25  1  0  0  0
 24 26  1  0  0  0
 14 16  1  0  0  0
 16  2  1  0  0  0
 16  6  1  0  0  0
 13  8  1  0  0  0
 24 18  1  0  0  0
M  CHG 1  24   1
M  END
> <minimizedAffinity>
-6.51428

> <CNNscore>
0.3475455046

> <CNNaffinity>
5.9777779579

> <CNN_VS>
2.0775499344

> <CNNaffinity_variance>
0.1364965737

$$$$
[H]C1=C2C([H])([H])C([H])([H])C([H])([H])C([H])([H])[C@]2([H])/C(=C(\[H])C([H])([H])C2([H])C([H])([H])C([H])([H])C(C([H])([H])[H])(C([H])([H])[H])[N+]2(C([H])([H])[H])C([H])([H])[H])[C@]2([H])[C@@]1([H])C(=O)O[C@@]2([H])C([H])([H])[H]


 26 29  0  0  0  0  0  0  0  0999 V2000
    1.6450  -47.8961  -21.7131 C   0  0  0  0  0  0  0  0  0  0  0  0
    2.2552  -48.9659  -20.7640 C   0  0  0  0  0  0  0  0  0  0  0  0
    3.4441  -49.3427  -21.4113 O   0  0  0  0  0  0  0  0  0  0  0  0
    3.0191  -50.1411  -22.4711 C   0  0  0  0  0  0  0  0  0  0  0  0
    3.7739  -50.5843  -23.3656 O   0  0  0  0  0  0  0  0  0  0  0  0
    1.5585  -50.3590  -22.3446 C   0  0  0  0  0  0  0  0  0  0  0  0
    1.0464  -51.6028  -22.8505 C   0  0  0  0  0  0  0  0  0  0  0  0
    0.6693  -52.6153  -22.1470 C   0  0  0  0  0  0  0  0  0  0  0  0
    0.1491  -53.8653  -22.7508 C   0  0  0  0  0  0  0  0  0  0  0  0
   -0.8846  -54.4310  -21.7861 C   0  0  0  0  0  0  0  0  0  0  0  0
   -1.5742  -53.3574  -21.0069 C   0  0  0  0  0  0  0  0  0  0  0  0
   -0.6930  -52.4778  -20.1895 C   0  0  0  0  0  0  0  0  0  0  0  0
    0.7436  -52.5677  -20.6986 C   0  0  0  0  0  0  0  0  0  0  0  0
    1.5175  -51.3729  -20.1448 C   0  0  0  0  0  0  0  0  0  0  0  0
    2.1513  -51.6785  -19.0550 C   0  0  0  0  0  0  0  0  0  0  0  0
    1.4093  -50.1391  -20.8146 C   0  0  0  0  0  0  0  0  0  0  0  0
    2.9798  -50.7996  -18.2718 C   0  0  0  0  0  0  0  0  0  0  0  0
    2.2610  -50.6499  -16.8896 C   0  0  0  0  0  0  0  0  0  0  0  0
    3.1066  -51.2721  -15.8133 C   0  0  0  0  0  0  0  0  0  0  0  0
    3.7036  -50.0282  -15.1538 C   0  0  0  0  0  0  0  0  0  0  0  0
    2.4907  -49.1109  -15.1900 C   0  0  0  0  0  0  0  0  0  0  0  0
    1.5116  -49.6337  -14.1630 C   0  0  0  0  0  0  0  0  0  0  0  0
    2.8250  -47.6925  -14.8599 C   0  0  0  0  0  0  0  0  0  0  0  0
    2.0238  -49.2943  -16.5477 N   0  0  0  0  0  0  0  0  0  0  0  0
    0.5634  -49.1076  -16.4923 C   0  0  0  0  0  0  0  0  0  0  0  0
    2.5249  -48.3067  -17.4518 C   0  0  0  0  0  0  0  0  0  0  0  0
  1  2  1  0  0  0
  2  3  1  0  0  0
  3  4  1  0  0  0
  4  5  2  0  0  0
  4  6  1  0  0  0
  6  7  1  0  0  0
  7  8  2  0  0  0
  8  9  1  0  0  0
  9 10  1  0  0  0
 10 11  1  0  0  0
 11 12  1  0  0  0
 12 13  1  0  0  0
 13 14  1  0  0  0
 14 15  2  0  0  0
 15 17  1  0  0  0
 17 18  1  0  0  0
 18 19  1  0  0  0
 19 20  1  0  0  0
 20 21  1  0  0  0
 21 22  1  0  0  0
 21 23  1  0  0  0
 21 24  1  0  0  0
 24 25  1  0  0  0
 24 26  1  0  0  0
 14 16  1  0  0  0
 16  2  1  0  0  0
 16  6  1  0  0  0
 13  8  1  0  0  0
 24 18  1  0  0  0
M  CHG 1  24   1
M  END
> <minimizedAffinity>
-6.83073

> <CNNscore>
0.2653170526

> <CNNaffinity>
5.6197056770

> <CNN_VS>
1.4910037518

> <CNNaffinity_variance>
0.0749205500

$$$$
[H]C1=C2C([H])([H])C([H])([H])C([H])([H])C([H])([H])[C@]2([H])/C(=C(\[H])C([H])([H])C2([H])C([H])([H])C([H])([H])C(C([H])([H])[H])(C([H])([H])[H])[N+]2(C([H])([H])[H])C([H])([H])[H])[C@]2([H])[C@@]1([H])C(=O)O[C@@]2([H])C([H])([H])[H]


 26 29  0  0  0  0  0  0  0  0999 V2000
    0.9688  -54.7934  -19.9470 C   0  0  0  0  0  0  0  0  0  0  0  0
    0.5671  -53.2966  -20.0729 C   0  0  0  0  0  0  0  0  0  0  0  0
   -0.8228  -53.3087  -19.8666 O   0  0  0  0  0  0  0  0  0  0  0  0
   -1.3409  -53.8221  -21.0537 C   0  0  0  0  0  0  0  0  0  0  0  0
   -2.5472  -54.1036  -21.2319 O   0  0  0  0  0  0  0  0  0  0  0  0
   -0.2353  -53.9670  -22.0302 C   0  0  0  0  0  0  0  0  0  0  0  0
   -0.5772  -53.8160  -23.4178 C   0  0  0  0  0  0  0  0  0  0  0  0
   -0.3206  -52.7934  -24.1600 C   0  0  0  0  0  0  0  0  0  0  0  0
   -0.7083  -52.7191  -25.5889 C   0  0  0  0  0  0  0  0  0  0  0  0
    0.3593  -51.8977  -26.2994 C   0  0  0  0  0  0  0  0  0  0  0  0
    1.7001  -52.0379  -25.6532 C   0  0  0  0  0  0  0  0  0  0  0  0
    1.7752  -51.6483  -24.2176 C   0  0  0  0  0  0  0  0  0  0  0  0
    0.3752  -51.6457  -23.6083 C   0  0  0  0  0  0  0  0  0  0  0  0
    0.5207  -51.6661  -22.0880 C   0  0  0  0  0  0  0  0  0  0  0  0
    0.4671  -50.4706  -21.5873 C   0  0  0  0  0  0  0  0  0  0  0  0
    0.7406  -52.9047  -21.4551 C   0  0  0  0  0  0  0  0  0  0  0  0
    0.5652  -50.1211  -20.1943 C   0  0  0  0  0  0  0  0  0  0  0  0
    2.0911  -49.9244  -19.9069 C   0  0  0  0  0  0  0  0  0  0  0  0
    2.6145  -48.7809  -20.7310 C   0  0  0  0  0  0  0  0  0  0  0  0
    2.7117  -47.6790  -19.6751 C   0  0  0  0  0  0  0  0  0  0  0  0
    3.2238  -48.4953  -18.4982 C   0  0  0  0  0  0  0  0  0  0  0  0
    4.6650  -48.8428  -18.7963 C   0  0  0  0  0  0  0  0  0  0  0  0
    3.1648  -47.7499  -17.2045 C   0  0  0  0  0  0  0  0  0  0  0  0
    2.3528  -49.6506  -18.5404 N   0  0  0  0  0  0  0  0  0  0  0  0
    3.1550  -50.7701  -18.0172 C   0  0  0  0  0  0  0  0  0  0  0  0
    1.2170  -49.5289  -17.6807 C   0  0  0  0  0  0  0  0  0  0  0  0
  1  2  1  0  0  0
  2  3  1  0  0  0
  3  4  1  0  0  0
  4  5  2  0  0  0
  4  6  1  0  0  0
  6  7  1  0  0  0
  7  8  2  0  0  0
  8  9  1  0  0  0
  9 10  1  0  0  0
 10 11  1  0  0  0
 11 12  1  0  0  0
 12 13  1  0  0  0
 13 14  1  0  0  0
 14 15  2  0  0  0
 15 17  1  0  0  0
 17 18  1  0  0  0
 18 19  1  0  0  0
 19 20  1  0  0  0
 20 21  1  0  0  0
 21 22  1  0  0  0
 21 23  1  0  0  0
 21 24  1  0  0  0
 24 25  1  0  0  0
 24 26  1  0  0  0
 14 16  1  0  0  0
 16  2  1  0  0  0
 16  6  1  0  0  0
 13  8  1  0  0  0
 24 18  1  0  0  0
M  CHG 1  24   1
M  END
> <minimizedAffinity>
-7.45960

> <CNNscore>
0.2479706854

> <CNNaffinity>
5.9864268303

> <CNN_VS>
1.4844583273

> <CNNaffinity_variance>
0.1423210353

$$$$
[H]c1c([H])c([H])c(C([H])([H])N2C([H])([H])C([H])([H])C([H])(C([H])([H])C([H])([H])N([H])C(=O)c3c([H])c([H])c([H])c([N+](=O)[O-])c3[H])C([H])([H])C2([H])[H])c([H])c1[H]


 28 30  0  0  0  0  0  0  0  0999 V2000
    4.5287  -50.5498  -21.5959 C   0  0  0  0  0  0  0  0  0  0  0  0
    2.0672  -49.8309  -20.4719 O   0  0  0  0  0  0  0  0  0  0  0  0
    2.2184  -51.0288  -20.8188 C   0  0  0  0  0  0  0  0  0  0  0  0
    3.4321  -51.4457  -21.3846 N   0  0  0  0  0  0  0  0  0  0  0  0
    3.5756  -52.4369  -21.6741 H   0  0  0  0  0  0  0  0  0  0  0  0
    1.0780  -51.9078  -20.5940 C   0  0  0  0  0  0  0  0  0  0  0  0
    0.4828  -51.9833  -19.3569 C   0  0  0  0  0  0  0  0  0  0  0  0
   -0.6136  -52.8290  -19.1415 C   0  0  0  0  0  0  0  0  0  0  0  0
   -1.1045  -53.5937  -20.1727 C   0  0  0  0  0  0  0  0  0  0  0  0
   -0.5308  -53.5444  -21.4341 C   0  0  0  0  0  0  0  0  0  0  0  0
    0.5535  -52.6901  -21.5945 C   0  0  0  0  0  0  0  0  0  0  0  0
   -1.0123  -54.3190  -22.5151 N   0  0  0  0  0  0  0  0  0  0  0  0
   -1.8623  -55.1884  -22.3008 O   0  0  0  0  0  0  0  0  0  0  0  0
   -0.5497  -54.1141  -23.7773 O   0  0  0  0  0  0  0  0  0  0  0  0
    4.8039  -50.4115  -23.0644 C   0  0  0  0  0  0  0  0  0  0  0  0
    3.6571  -51.1011  -23.7890 C   0  0  0  0  0  0  0  0  0  0  0  0
    4.1661  -52.1531  -24.7391 C   0  0  0  0  0  0  0  0  0  0  0  0
    2.9305  -52.8920  -25.2644 C   0  0  0  0  0  0  0  0  0  0  0  0
    2.0708  -51.9984  -25.9501 N   0  0  0  0  0  0  0  0  0  0  0  0
    2.4386  -50.6249  -25.9287 C   0  0  0  0  0  0  0  0  0  0  0  0
    2.8224  -50.1108  -24.5656 C   0  0  0  0  0  0  0  0  0  0  0  0
    1.8739  -52.4229  -27.3095 C   0  0  0  0  0  0  0  0  0  0  0  0
    0.4763  -52.5088  -27.7354 C   0  0  0  0  0  0  0  0  0  0  0  0
   -0.4864  -52.2131  -26.7799 C   0  0  0  0  0  0  0  0  0  0  0  0
   -1.8369  -52.2471  -27.0560 C   0  0  0  0  0  0  0  0  0  0  0  0
   -2.2083  -52.5901  -28.3321 C   0  0  0  0  0  0  0  0  0  0  0  0
   -1.2631  -52.8840  -29.2823 C   0  0  0  0  0  0  0  0  0  0  0  0
    0.0748  -52.8473  -28.9984 C   0  0  0  0  0  0  0  0  0  0  0  0
  2  3  2  0  0  0
  3  4  1  0  0  0
  4  1  1  0  0  0
  1 15  1  0  0  0
 15 16  1  0  0  0
 16 17  1  0  0  0
 17 18  1  0  0  0
 18 19  1  0  0  0
 19 22  1  0  0  0
 22 23  1  0  0  0
 23 24  2  0  0  0
 24 25  1  0  0  0
 25 26  2  0  0  0
 26 27  1  0  0  0
 27 28  2  0  0  0
 19 20  1  0  0  0
 20 21  1  0  0  0
  3  6  1  0  0  0
  6  7  2  0  0  0
  7  8  1  0  0  0
  8  9  2  0  0  0
  9 10  1  0  0  0
 10 12  1  0  0  0
 12 13  2  0  0  0
 12 14  1  0  0  0
 10 11  2  0  0  0
 21 16  1  0  0  0
 11  6  1  0  0  0
 28 23  1  0  0  0
  4  5  1  0  0  0
M  CHG 1  12   1
M  CHG 1  14  -1
M  END
> <minimizedAffinity>
-7.96741

> <CNNscore>
0.5908746719

> <CNNaffinity>
6.6209578514

> <CNN_VS>
3.9121563435

> <CNNaffinity_variance>
0.0218159556

$$$$
[H]c1c([H])c([H])c(C([H])([H])N2C([H])([H])C([H])([H])C([H])(C([H])([H])C([H])([H])N([H])C(=O)c3c([H])c([H])c([H])c([N+](=O)[O-])c3[H])C([H])([H])C2([H])[H])c([H])c1[H]


 28 30  0  0  0  0  0  0  0  0999 V2000
   -0.8026  -54.2781  -24.0826 C   0  0  0  0  0  0  0  0  0  0  0  0
   -1.2736  -54.6150  -21.3433 O   0  0  0  0  0  0  0  0  0  0  0  0
   -0.6889  -53.5639  -21.7061 C   0  0  0  0  0  0  0  0  0  0  0  0
   -0.4299  -53.3410  -23.0663 N   0  0  0  0  0  0  0  0  0  0  0  0
    0.0505  -52.4723  -23.3847 H   0  0  0  0  0  0  0  0  0  0  0  0
   -0.3197  -52.6385  -20.6426 C   0  0  0  0  0  0  0  0  0  0  0  0
   -0.5851  -52.9384  -19.3273 C   0  0  0  0  0  0  0  0  0  0  0  0
   -0.2298  -52.0480  -18.3052 C   0  0  0  0  0  0  0  0  0  0  0  0
    0.3906  -50.8608  -18.6132 C   0  0  0  0  0  0  0  0  0  0  0  0
    0.6748  -50.5236  -19.9278 C   0  0  0  0  0  0  0  0  0  0  0  0
    0.3019  -51.4410  -20.9029 C   0  0  0  0  0  0  0  0  0  0  0  0
    1.3116  -49.3099  -20.2770 N   0  0  0  0  0  0  0  0  0  0  0  0
    2.4670  -49.1046  -19.8934 O   0  0  0  0  0  0  0  0  0  0  0  0
    0.6657  -48.3765  -21.0257 O   0  0  0  0  0  0  0  0  0  0  0  0
    0.1288  -54.1643  -25.2534 C   0  0  0  0  0  0  0  0  0  0  0  0
    0.9560  -52.9065  -25.0309 C   0  0  0  0  0  0  0  0  0  0  0  0
    0.5654  -51.8187  -25.9967 C   0  0  0  0  0  0  0  0  0  0  0  0
    1.3270  -50.5625  -25.5603 C   0  0  0  0  0  0  0  0  0  0  0  0
    2.7255  -50.7825  -25.6216 N   0  0  0  0  0  0  0  0  0  0  0  0
    3.1448  -52.1005  -25.9523 C   0  0  0  0  0  0  0  0  0  0  0  0
    2.4322  -53.1844  -25.1862 C   0  0  0  0  0  0  0  0  0  0  0  0
    3.3510  -49.8411  -26.5103 C   0  0  0  0  0  0  0  0  0  0  0  0
    3.4099  -48.4656  -26.0140 C   0  0  0  0  0  0  0  0  0  0  0  0
    3.0136  -47.4674  -26.8936 C   0  0  0  0  0  0  0  0  0  0  0  0
    3.0127  -46.1331  -26.5459 C   0  0  0  0  0  0  0  0  0  0  0  0
    3.4250  -45.8152  -25.2758 C   0  0  0  0  0  0  0  0  0  0  0  0
    3.8184  -46.7957  -24.4003 C   0  0  0  0  0  0  0  0  0  0  0  0
    3.8156  -48.1171  -24.7551 C   0  0  0  0  0  0  0  0  0  0  0  0
  2  3  2  0  0  0
  3  4  1  0  0  0
  4  1  1  0  0  0
  1 15  1  0  0  0
 15 16  1  0  0  0
 16 17  1  0  0  0
 17 18  1  0  0  0
 18 19  1  0  0  0
 19 22  1  0  0  0
 22 23  1  0  0  0
 23 24  2  0  0  0
 24 25  1  0  0  0
 25 26  2  0  0  0
 26 27  1  0  0  0
 27 28  2  0  0  0
 19 20  1  0  0  0
 20 21  1  0  0  0
  3  6  1  0  0  0
  6  7  2  0  0  0
  7  8  1  0  0  0
  8  9  2  0  0  0
  9 10  1  0  0  0
 10 12  1  0  0  0
 12 13  2  0  0  0
 12 14  1  0  0  0
 10 11  2  0  0  0
 21 16  1  0  0  0
 11  6  1  0  0  0
 28 23  1  0  0  0
  4  5  1  0  0  0
M  CHG 1  12   1
M  CHG 1  14  -1
M  END
> <minimizedAffinity>
-6.73634

> <CNNscore>
0.4254521430

> <CNNaffinity>
6.0934705734

> <CNN_VS>
2.5924801826

> <CNNaffinity_variance>
0.1128346175

$$$$
[H]c1c([H])c([H])c(C([H])([H])N2C([H])([H])C([H])([H])C([H])(C([H])([H])C([H])([H])N([H])C(=O)c3c([H])c([H])c([H])c([N+](=O)[O-])c3[H])C([H])([H])C2([H])[H])c([H])c1[H]


 28 30  0  0  0  0  0  0  0  0999 V2000
    1.0534  -52.3997  -20.4029 C   0  0  0  0  0  0  0  0  0  0  0  0
   -0.6330  -53.3351  -22.4326 O   0  0  0  0  0  0  0  0  0  0  0  0
    0.3923  -52.6971  -22.7788 C   0  0  0  0  0  0  0  0  0  0  0  0
    1.2743  -52.2078  -21.8044 N   0  0  0  0  0  0  0  0  0  0  0  0
    2.1319  -51.6801  -22.0746 H   0  0  0  0  0  0  0  0  0  0  0  0
    0.5787  -52.5168  -24.2128 C   0  0  0  0  0  0  0  0  0  0  0  0
    1.8247  -52.2541  -24.7315 C   0  0  0  0  0  0  0  0  0  0  0  0
    2.0030  -52.0808  -26.1105 C   0  0  0  0  0  0  0  0  0  0  0  0
    0.9260  -52.1729  -26.9595 C   0  0  0  0  0  0  0  0  0  0  0  0
   -0.3456  -52.4366  -26.4738 C   0  0  0  0  0  0  0  0  0  0  0  0
   -0.4680  -52.6001  -25.0991 C   0  0  0  0  0  0  0  0  0  0  0  0
   -1.4736  -52.5369  -27.3212 N   0  0  0  0  0  0  0  0  0  0  0  0
   -2.5993  -52.3520  -26.8489 O   0  0  0  0  0  0  0  0  0  0  0  0
   -1.3277  -52.8326  -28.6404 O   0  0  0  0  0  0  0  0  0  0  0  0
    0.2674  -51.2502  -19.8442 C   0  0  0  0  0  0  0  0  0  0  0  0
    0.5588  -51.2084  -18.3512 C   0  0  0  0  0  0  0  0  0  0  0  0
   -0.5532  -51.8461  -17.5603 C   0  0  0  0  0  0  0  0  0  0  0  0
   -0.0674  -51.9072  -16.1081 C   0  0  0  0  0  0  0  0  0  0  0  0
    0.1896  -50.6041  -15.6144 N   0  0  0  0  0  0  0  0  0  0  0  0
    0.0642  -49.5380  -16.5471 C   0  0  0  0  0  0  0  0  0  0  0  0
    0.7456  -49.7903  -17.8668 C   0  0  0  0  0  0  0  0  0  0  0  0
   -0.6182  -50.3290  -14.4573 C   0  0  0  0  0  0  0  0  0  0  0  0
   -2.0269  -50.0479  -14.7377 C   0  0  0  0  0  0  0  0  0  0  0  0
   -2.8565  -51.1450  -14.9257 C   0  0  0  0  0  0  0  0  0  0  0  0
   -4.2045  -51.0165  -15.1863 C   0  0  0  0  0  0  0  0  0  0  0  0
   -4.7116  -49.7429  -15.2560 C   0  0  0  0  0  0  0  0  0  0  0  0
   -3.8984  -48.6533  -15.0716 C   0  0  0  0  0  0  0  0  0  0  0  0
   -2.5619  -48.7914  -14.8134 C   0  0  0  0  0  0  0  0  0  0  0  0
  2  3  2  0  0  0
  3  4  1  0  0  0
  4  1  1  0  0  0
  1 15  1  0  0  0
 15 16  1  0  0  0
 16 17  1  0  0  0
 17 18  1  0  0  0
 18 19  1  0  0  0
 19 22  1  0  0  0
 22 23  1  0  0  0
 23 24  2  0  0  0
 24 25  1  0  0  0
 25 26  2  0  0  0
 26 27  1  0  0  0
 27 28  2  0  0  0
 19 20  1  0  0  0
 20 21  1  0  0  0
  3  6  1  0  0  0
  6  7  2  0  0  0
  7  8  1  0  0  0
  8  9  2  0  0  0
  9 10  1  0  0  0
 10 12  1  0  0  0
 12 13  2  0  0  0
 12 14  1  0  0  0
 10 11  2  0  0  0
 21 16  1  0  0  0
 11  6  1  0  0  0
 28 23  1  0  0  0
  4  5  1  0  0  0
M  CHG 1  12   1
M  CHG 1  14  -1
M  END
> <minimizedAffinity>
-7.29186

> <CNNscore>
0.4041285515

> <CNNaffinity>
5.7052550316

> <CNN_VS>
2.3056564331

> <CNNaffinity_variance>
0.2293535173

$$$$
[H]c1c([H])c([H])c(C([H])([H])N2C([H])([H])C([H])([H])C([H])(C([H])([H])C([H])([H])N([H])C(=O)c3c([H])c([H])c([H])c([N+](=O)[O-])c3[H])C([H])([H])C2([H])[H])c([H])c1[H]


 28 30  0  0  0  0  0  0  0  0999 V2000
    4.3653  -50.8160  -21.4389 C   0  0  0  0  0  0  0  0  0  0  0  0
    3.2508  -51.9515  -19.1352 O   0  0  0  0  0  0  0  0  0  0  0  0
    2.5167  -51.8618  -20.1507 C   0  0  0  0  0  0  0  0  0  0  0  0
    3.0236  -51.3043  -21.3335 N   0  0  0  0  0  0  0  0  0  0  0  0
    2.4292  -51.2262  -22.1865 H   0  0  0  0  0  0  0  0  0  0  0  0
    1.1564  -52.3631  -20.0021 C   0  0  0  0  0  0  0  0  0  0  0  0
    0.5123  -52.9687  -21.0550 C   0  0  0  0  0  0  0  0  0  0  0  0
   -0.7958  -53.4503  -20.9113 C   0  0  0  0  0  0  0  0  0  0  0  0
   -1.4478  -53.3196  -19.7084 C   0  0  0  0  0  0  0  0  0  0  0  0
   -0.8308  -52.7149  -18.6238 C   0  0  0  0  0  0  0  0  0  0  0  0
    0.4659  -52.2547  -18.8191 C   0  0  0  0  0  0  0  0  0  0  0  0
   -1.4750  -52.5649  -17.3736 N   0  0  0  0  0  0  0  0  0  0  0  0
   -0.9654  -51.8353  -16.5178 O   0  0  0  0  0  0  0  0  0  0  0  0
   -2.6411  -53.2129  -17.1104 O   0  0  0  0  0  0  0  0  0  0  0  0
    4.8400  -50.9193  -22.8585 C   0  0  0  0  0  0  0  0  0  0  0  0
    3.6227  -51.2744  -23.6998 C   0  0  0  0  0  0  0  0  0  0  0  0
    3.8197  -52.5829  -24.4193 C   0  0  0  0  0  0  0  0  0  0  0  0
    2.4766  -52.9185  -25.0766 C   0  0  0  0  0  0  0  0  0  0  0  0
    2.1100  -51.9099  -26.0019 N   0  0  0  0  0  0  0  0  0  0  0  0
    2.9586  -50.7705  -26.0651 C   0  0  0  0  0  0  0  0  0  0  0  0
    3.3269  -50.2009  -24.7200 C   0  0  0  0  0  0  0  0  0  0  0  0
    1.9462  -52.4620  -27.3193 C   0  0  0  0  0  0  0  0  0  0  0  0
    0.5613  -52.5588  -27.7826 C   0  0  0  0  0  0  0  0  0  0  0  0
   -0.4301  -52.3374  -26.8364 C   0  0  0  0  0  0  0  0  0  0  0  0
   -1.7727  -52.3892  -27.1464 C   0  0  0  0  0  0  0  0  0  0  0  0
   -2.1060  -52.6730  -28.4473 C   0  0  0  0  0  0  0  0  0  0  0  0
   -1.1323  -52.8933  -29.3885 C   0  0  0  0  0  0  0  0  0  0  0  0
    0.1974  -52.8395  -29.0709 C   0  0  0  0  0  0  0  0  0  0  0  0
  2  3  2  0  0  0
  3  4  1  0  0  0
  4  1  1  0  0  0
  1 15  1  0  0  0
 15 16  1  0  0  0
 16 17  1  0  0  0
 17 18  1  0  0  0
 18 19  1  0  0  0
 19 22  1  0  0  0
 22 23  1  0  0  0
 23 24  2  0  0  0
 24 25  1  0  0  0
 25 26  2  0  0  0
 26 27  1  0  0  0
 27 28  2  0  0  0
 19 20  1  0  0  0
 20 21  1  0  0  0
  3  6  1  0  0  0
  6  7  2  0  0  0
  7  8  1  0  0  0
  8  9  2  0  0  0
  9 10  1  0  0  0
 10 12  1  0  0  0
 12 13  2  0  0  0
 12 14  1  0  0  0
 10 11  2  0  0  0
 21 16  1  0  0  0
 11  6  1  0  0  0
 28 23  1  0  0  0
  4  5  1  0  0  0
M  CHG 1  12   1
M  CHG 1  14  -1
M  END
> <minimizedAffinity>
-7.72559

> <CNNscore>
0.3346520960

> <CNNaffinity>
6.0331168175

> <CNN_VS>
2.0189952850

> <CNNaffinity_variance>
0.0634827539

$$$$
[H]c1c([H])c([H])c(C([H])([H])N2C([H])([H])C([H])([H])C([H])(C([H])([H])C([H])([H])N([H])C(=O)c3c([H])c([H])c([H])c([N+](=O)[O-])c3[H])C([H])([H])C2([H])[H])c([H])c1[H]


 28 30  0  0  0  0  0  0  0  0999 V2000
    4.4292  -52.1844  -24.5779 C   0  0  0  0  0  0  0  0  0  0  0  0
    1.8179  -53.1900  -24.4832 O   0  0  0  0  0  0  0  0  0  0  0  0
    2.2225  -52.7297  -25.5799 C   0  0  0  0  0  0  0  0  0  0  0  0
    3.5231  -52.2159  -25.6860 N   0  0  0  0  0  0  0  0  0  0  0  0
    3.8761  -51.8340  -26.5896 H   0  0  0  0  0  0  0  0  0  0  0  0
    1.2695  -52.7730  -26.6816 C   0  0  0  0  0  0  0  0  0  0  0  0
    1.6838  -53.0765  -27.9569 C   0  0  0  0  0  0  0  0  0  0  0  0
    0.7668  -53.1178  -29.0157 C   0  0  0  0  0  0  0  0  0  0  0  0
   -0.5620  -52.8533  -28.7845 C   0  0  0  0  0  0  0  0  0  0  0  0
   -1.0175  -52.5437  -27.5120 C   0  0  0  0  0  0  0  0  0  0  0  0
   -0.0678  -52.5160  -26.4977 C   0  0  0  0  0  0  0  0  0  0  0  0
   -2.3779  -52.2663  -27.2419 N   0  0  0  0  0  0  0  0  0  0  0  0
   -2.6631  -51.4877  -26.3272 O   0  0  0  0  0  0  0  0  0  0  0  0
   -3.3645  -52.8459  -27.9766 O   0  0  0  0  0  0  0  0  0  0  0  0
    4.8775  -50.7760  -24.3202 C   0  0  0  0  0  0  0  0  0  0  0  0
    4.1913  -50.3285  -23.0378 C   0  0  0  0  0  0  0  0  0  0  0  0
    3.6841  -51.5080  -22.2503 C   0  0  0  0  0  0  0  0  0  0  0  0
    3.1843  -50.9494  -20.9136 C   0  0  0  0  0  0  0  0  0  0  0  0
    2.1335  -50.0222  -21.1238 N   0  0  0  0  0  0  0  0  0  0  0  0
    1.8265  -49.7100  -22.4767 C   0  0  0  0  0  0  0  0  0  0  0  0
    3.0316  -49.4055  -23.3278 C   0  0  0  0  0  0  0  0  0  0  0  0
    0.9388  -50.4432  -20.4437 C   0  0  0  0  0  0  0  0  0  0  0  0
    0.4309  -51.7573  -20.8397 C   0  0  0  0  0  0  0  0  0  0  0  0
    0.7416  -52.8233  -20.0064 C   0  0  0  0  0  0  0  0  0  0  0  0
    0.3154  -54.1097  -20.2614 C   0  0  0  0  0  0  0  0  0  0  0  0
   -0.4416  -54.3081  -21.3890 C   0  0  0  0  0  0  0  0  0  0  0  0
   -0.7530  -53.2600  -22.2180 C   0  0  0  0  0  0  0  0  0  0  0  0
   -0.3253  -51.9870  -21.9561 C   0  0  0  0  0  0  0  0  0  0  0  0
  2  3  2  0  0  0
  3  4  1  0  0  0
  4  1  1  0  0  0
  1 15  1  0  0  0
 15 16  1  0  0  0
 16 17  1  0  0  0
 17 18  1  0  0  0
 18 19  1  0  0  0
 19 22  1  0  0  0
 22 23  1  0  0  0
 23 24  2  0  0  0
 24 25  1  0  0  0
 25 26  2  0  0  0
 26 27  1  0  0  0
 27 28  2  0  0  0
 19 20  1  0  0  0
 20 21  1  0  0  0
  3  6  1  0  0  0
  6  7  2  0  0  0
  7  8  1  0  0  0
  8  9  2  0  0  0
  9 10  1  0  0  0
 10 12  1  0  0  0
 12 13  2  0  0  0
 12 14  1  0  0  0
 10 11  2  0  0  0
 21 16  1  0  0  0
 11  6  1  0  0  0
 28 23  1  0  0  0
  4  5  1  0  0  0
M  CHG 1  12   1
M  CHG 1  14  -1
M  END
> <minimizedAffinity>
-7.94966

> <CNNscore>
0.3093280494

> <CNNaffinity>
6.0763044357

> <CNN_VS>
1.8795714378

> <CNNaffinity_variance>
0.2217773199

$$$$
[H]c1c([H])c([H])c(C([H])([H])N2C([H])([H])C([H])([H])C([H])(C([H])([H])C([H])([H])N([H])C(=O)c3c([H])c([H])c([H])c([N+](=O)[O-])c3[H])C([H])([H])C2([H])[H])c([H])c1[H]


 28 30  0  0  0  0  0  0  0  0999 V2000
    2.8467  -47.9350  -20.4766 C   0  0  0  0  0  0  0  0  0  0  0  0
    3.0240  -49.8462  -18.4383 O   0  0  0  0  0  0  0  0  0  0  0  0
    1.9762  -49.8331  -19.1312 C   0  0  0  0  0  0  0  0  0  0  0  0
    1.8345  -48.8994  -20.1680 N   0  0  0  0  0  0  0  0  0  0  0  0
    0.9734  -48.8776  -20.7553 H   0  0  0  0  0  0  0  0  0  0  0  0
    0.9671  -50.8249  -18.7824 C   0  0  0  0  0  0  0  0  0  0  0  0
    0.3249  -50.7761  -17.5677 C   0  0  0  0  0  0  0  0  0  0  0  0
   -0.6453  -51.7302  -17.2330 C   0  0  0  0  0  0  0  0  0  0  0  0
   -0.9634  -52.7281  -18.1231 C   0  0  0  0  0  0  0  0  0  0  0  0
   -0.3374  -52.8099  -19.3576 C   0  0  0  0  0  0  0  0  0  0  0  0
    0.6167  -51.8396  -19.6401 C   0  0  0  0  0  0  0  0  0  0  0  0
   -0.6421  -53.8245  -20.2948 N   0  0  0  0  0  0  0  0  0  0  0  0
    0.2806  -54.4495  -20.8262 O   0  0  0  0  0  0  0  0  0  0  0  0
   -1.9326  -54.1136  -20.6111 O   0  0  0  0  0  0  0  0  0  0  0  0
    3.7247  -48.4466  -21.5806 C   0  0  0  0  0  0  0  0  0  0  0  0
    2.8190  -49.2015  -22.5426 C   0  0  0  0  0  0  0  0  0  0  0  0
    3.1503  -50.6707  -22.5646 C   0  0  0  0  0  0  0  0  0  0  0  0
    2.0682  -51.3426  -23.4167 C   0  0  0  0  0  0  0  0  0  0  0  0
    2.0817  -50.8255  -24.7360 N   0  0  0  0  0  0  0  0  0  0  0  0
    2.9779  -49.7497  -24.9847 C   0  0  0  0  0  0  0  0  0  0  0  0
    2.9340  -48.6585  -23.9471 C   0  0  0  0  0  0  0  0  0  0  0  0
    2.3114  -51.8744  -25.6921 C   0  0  0  0  0  0  0  0  0  0  0  0
    1.1677  -52.1943  -26.5474 C   0  0  0  0  0  0  0  0  0  0  0  0
   -0.0918  -51.9131  -26.0359 C   0  0  0  0  0  0  0  0  0  0  0  0
   -1.2491  -52.1575  -26.7446 C   0  0  0  0  0  0  0  0  0  0  0  0
   -1.1146  -52.6994  -27.9985 C   0  0  0  0  0  0  0  0  0  0  0  0
    0.1266  -52.9804  -28.5115 C   0  0  0  0  0  0  0  0  0  0  0  0
    1.2691  -52.7340  -27.8001 C   0  0  0  0  0  0  0  0  0  0  0  0
  2  3  2  0  0  0
  3  4  1  0  0  0
  4  1  1  0  0  0
  1 15  1  0  0  0
 15 16  1  0  0  0
 16 17  1  0  0  0
 17 18  1  0  0  0
 18 19  1  0  0  0
 19 22  1  0  0  0
 22 23  1  0  0  0
 23 24  2  0  0  0
 24 25  1  0  0  0
 25 26  2  0  0  0
 26 27  1  0  0  0
 27 28  2  0  0  0
 19 20  1  0  0  0
 20 21  1  0  0  0
  3  6  1  0  0  0
  6  7  2  0  0  0
  7  8  1  0  0  0
  8  9  2  0  0  0
  9 10  1  0  0  0
 10 12  1  0  0  0
 12 13  2  0  0  0
 12 14  1  0  0  0
 10 11  2  0  0  0
 21 16  1  0  0  0
 11  6  1  0  0  0
 28 23  1  0  0  0
  4  5  1  0  0  0
M  CHG 1  12   1
M  CHG 1  14  -1
M  END
> <minimizedAffinity>
-6.98975

> <CNNscore>
0.2063809037

> <CNNaffinity>
5.8531718254

> <CNN_VS>
1.2079828978

> <CNNaffinity_variance>
0.0847082883

$$$$
[H]c1c([H])c([H])c(C([H])([H])N2C([H])([H])C([H])([H])C([H])(C([H])([H])C([H])([H])N([H])C(=O)c3c([H])c([H])c([H])c([N+](=O)[O-])c3[H])C([H])([H])C2([H])[H])c([H])c1[H]


 28 30  0  0  0  0  0  0  0  0999 V2000
    4.8712  -51.2826  -24.3541 C   0  0  0  0  0  0  0  0  0  0  0  0
    2.4878  -49.9569  -24.9871 O   0  0  0  0  0  0  0  0  0  0  0  0
    2.4511  -51.2102  -24.9094 C   0  0  0  0  0  0  0  0  0  0  0  0
    3.6146  -51.9261  -24.5923 N   0  0  0  0  0  0  0  0  0  0  0  0
    3.6007  -52.9660  -24.5197 H   0  0  0  0  0  0  0  0  0  0  0  0
    1.1565  -51.8286  -25.1650 C   0  0  0  0  0  0  0  0  0  0  0  0
    0.2212  -51.1999  -25.9525 C   0  0  0  0  0  0  0  0  0  0  0  0
   -1.0235  -51.7952  -26.1977 C   0  0  0  0  0  0  0  0  0  0  0  0
   -1.3194  -53.0199  -25.6485 C   0  0  0  0  0  0  0  0  0  0  0  0
   -0.4018  -53.6846  -24.8492 C   0  0  0  0  0  0  0  0  0  0  0  0
    0.8170  -53.0511  -24.6375 C   0  0  0  0  0  0  0  0  0  0  0  0
   -0.6765  -54.9451  -24.2695 N   0  0  0  0  0  0  0  0  0  0  0  0
   -0.7591  -55.9377  -24.9991 O   0  0  0  0  0  0  0  0  0  0  0  0
   -0.8481  -55.0698  -22.9264 O   0  0  0  0  0  0  0  0  0  0  0  0
    5.5582  -51.9150  -23.1797 C   0  0  0  0  0  0  0  0  0  0  0  0
    5.0268  -51.2164  -21.9365 C   0  0  0  0  0  0  0  0  0  0  0  0
    3.8939  -51.9921  -21.3172 C   0  0  0  0  0  0  0  0  0  0  0  0
    3.5702  -51.2953  -19.9912 C   0  0  0  0  0  0  0  0  0  0  0  0
    3.1695  -49.9553  -20.2185 N   0  0  0  0  0  0  0  0  0  0  0  0
    3.2461  -49.4909  -21.5604 C   0  0  0  0  0  0  0  0  0  0  0  0
    4.5417  -49.8220  -22.2542 C   0  0  0  0  0  0  0  0  0  0  0  0
    1.8469  -49.7246  -19.7040 C   0  0  0  0  0  0  0  0  0  0  0  0
    0.8713  -50.7712  -20.0115 C   0  0  0  0  0  0  0  0  0  0  0  0
    0.5405  -51.6386  -18.9793 C   0  0  0  0  0  0  0  0  0  0  0  0
   -0.3721  -52.6603  -19.1360 C   0  0  0  0  0  0  0  0  0  0  0  0
   -0.9560  -52.7964  -20.3707 C   0  0  0  0  0  0  0  0  0  0  0  0
   -0.6346  -51.9435  -21.3962 C   0  0  0  0  0  0  0  0  0  0  0  0
    0.2724  -50.9326  -21.2306 C   0  0  0  0  0  0  0  0  0  0  0  0
  2  3  2  0  0  0
  3  4  1  0  0  0
  4  1  1  0  0  0
  1 15  1  0  0  0
 15 16  1  0  0  0
 16 17  1  0  0  0
 17 18  1  0  0  0
 18 19  1  0  0  0
 19 22  1  0  0  0
 22 23  1  0  0  0
 23 24  2  0  0  0
 24 25  1  0  0  0
 25 26  2  0  0  0
 26 27  1  0  0  0
 27 28  2  0  0  0
 19 20  1  0  0  0
 20 21  1  0  0  0
  3  6  1  0  0  0
  6  7  2  0  0  0
  7  8  1  0  0  0
  8  9  2  0  0  0
  9 10  1  0  0  0
 10 12  1  0  0  0
 12 13  2  0  0  0
 12 14  1  0  0  0
 10 11  2  0  0  0
 21 16  1  0  0  0
 11  6  1  0  0  0
 28 23  1  0  0  0
  4  5  1  0  0  0
M  CHG 1  12   1
M  CHG 1  14  -1
M  END
> <minimizedAffinity>
-6.61337

> <CNNscore>
0.1964261234

> <CNNaffinity>
5.9054460526

> <CNN_VS>
1.1599838734

> <CNNaffinity_variance>
0.1196524054

$$$$
[H]c1c([H])c([H])c(C([H])([H])N2C([H])([H])C([H])([H])C([H])(C([H])([H])C([H])([H])N([H])C(=O)c3c([H])c([H])c([H])c([N+](=O)[O-])c3[H])C([H])([H])C2([H])[H])c([H])c1[H]


 28 30  0  0  0  0  0  0  0  0999 V2000
    3.8736  -49.6497  -21.4107 C   0  0  0  0  0  0  0  0  0  0  0  0
    1.1601  -49.8563  -22.0692 O   0  0  0  0  0  0  0  0  0  0  0  0
    1.7614  -50.9123  -21.7506 C   0  0  0  0  0  0  0  0  0  0  0  0
    3.1207  -50.8675  -21.4081 N   0  0  0  0  0  0  0  0  0  0  0  0
    3.6336  -51.7338  -21.1372 H   0  0  0  0  0  0  0  0  0  0  0  0
    0.9633  -52.1316  -21.7663 C   0  0  0  0  0  0  0  0  0  0  0  0
    0.7228  -52.8284  -20.6057 C   0  0  0  0  0  0  0  0  0  0  0  0
   -0.0446  -54.0008  -20.6217 C   0  0  0  0  0  0  0  0  0  0  0  0
   -0.5655  -54.4648  -21.8060 C   0  0  0  0  0  0  0  0  0  0  0  0
   -0.3446  -53.7893  -22.9966 C   0  0  0  0  0  0  0  0  0  0  0  0
    0.4227  -52.6327  -22.9258 C   0  0  0  0  0  0  0  0  0  0  0  0
   -0.8663  -54.2414  -24.2311 N   0  0  0  0  0  0  0  0  0  0  0  0
   -1.2240  -55.4182  -24.3383 O   0  0  0  0  0  0  0  0  0  0  0  0
   -0.9756  -53.3962  -25.2907 O   0  0  0  0  0  0  0  0  0  0  0  0
    4.9457  -49.7104  -22.4586 C   0  0  0  0  0  0  0  0  0  0  0  0
    4.3499  -49.1149  -23.7260 C   0  0  0  0  0  0  0  0  0  0  0  0
    4.5752  -50.0171  -24.9108 C   0  0  0  0  0  0  0  0  0  0  0  0
    3.7828  -49.4073  -26.0722 C   0  0  0  0  0  0  0  0  0  0  0  0
    4.2524  -48.1024  -26.3635 N   0  0  0  0  0  0  0  0  0  0  0  0
    5.2484  -47.5795  -25.4937 C   0  0  0  0  0  0  0  0  0  0  0  0
    4.9444  -47.7602  -24.0293 C   0  0  0  0  0  0  0  0  0  0  0  0
    4.7085  -48.0170  -27.7244 C   0  0  0  0  0  0  0  0  0  0  0  0
    3.8499  -47.2383  -28.6178 C   0  0  0  0  0  0  0  0  0  0  0  0
    2.8405  -46.4947  -28.0216 C   0  0  0  0  0  0  0  0  0  0  0  0
    1.9706  -45.7112  -28.7502 C   0  0  0  0  0  0  0  0  0  0  0  0
    2.1367  -45.6889  -30.1125 C   0  0  0  0  0  0  0  0  0  0  0  0
    3.1317  -46.4210  -30.7096 C   0  0  0  0  0  0  0  0  0  0  0  0
    3.9900  -47.1954  -29.9777 C   0  0  0  0  0  0  0  0  0  0  0  0
  2  3  2  0  0  0
  3  4  1  0  0  0
  4  1  1  0  0  0
  1 15  1  0  0  0
 15 16  1  0  0  0
 16 17  1  0  0  0
 17 18  1  0  0  0
 18 19  1  0  0  0
 19 22  1  0  0  0
 22 23  1  0  0  0
 23 24  2  0  0  0
 24 25  1  0  0  0
 25 26  2  0  0  0
 26 27  1  0  0  0
 27 28  2  0  0  0
 19 20  1  0  0  0
 20 21  1  0  0  0
  3  6  1  0  0  0
  6  7  2  0  0  0
  7  8  1  0  0  0
  8  9  2  0  0  0
  9 10  1  0  0  0
 10 12  1  0  0  0
 12 13  2  0  0  0
 12 14  1  0  0  0
 10 11  2  0  0  0
 21 16  1  0  0  0
 11  6  1  0  0  0
 28 23  1  0  0  0
  4  5  1  0  0  0
M  CHG 1  12   1
M  CHG 1  14  -1
M  END
> <minimizedAffinity>
-6.70139

> <CNNscore>
0.1749335378

> <CNNaffinity>
5.3253445625

> <CNN_VS>
0.9315813780

> <CNNaffinity_variance>
0.0918298811

$$$$
[H]c1c([H])c([H])c(C([H])([H])N2C([H])([H])C([H])([H])C([H])(C([H])([H])C([H])([H])N([H])C(=O)c3c([H])c([H])c([H])c([N+](=O)[O-])c3[H])C([H])([H])C2([H])[H])c([H])c1[H]


 28 30  0  0  0  0  0  0  0  0999 V2000
    0.1417  -53.6074  -21.1462 C   0  0  0  0  0  0  0  0  0  0  0  0
   -1.2184  -54.6359  -23.3668 O   0  0  0  0  0  0  0  0  0  0  0  0
   -0.3709  -53.7320  -23.5736 C   0  0  0  0  0  0  0  0  0  0  0  0
    0.3425  -53.1823  -22.4986 N   0  0  0  0  0  0  0  0  0  0  0  0
    1.0523  -52.4345  -22.6532 H   0  0  0  0  0  0  0  0  0  0  0  0
   -0.2000  -53.3219  -24.9616 C   0  0  0  0  0  0  0  0  0  0  0  0
   -1.1730  -52.5926  -25.6032 C   0  0  0  0  0  0  0  0  0  0  0  0
   -1.0078  -52.1987  -26.9379 C   0  0  0  0  0  0  0  0  0  0  0  0
    0.1359  -52.5414  -27.6188 C   0  0  0  0  0  0  0  0  0  0  0  0
    1.1392  -53.2760  -27.0053 C   0  0  0  0  0  0  0  0  0  0  0  0
    0.9260  -53.6412  -25.6815 C   0  0  0  0  0  0  0  0  0  0  0  0
    2.3270  -53.6445  -27.6790 N   0  0  0  0  0  0  0  0  0  0  0  0
    3.4094  -53.2147  -27.2688 O   0  0  0  0  0  0  0  0  0  0  0  0
    2.2852  -54.4616  -28.7650 O   0  0  0  0  0  0  0  0  0  0  0  0
   -0.4794  -52.5004  -20.3462 C   0  0  0  0  0  0  0  0  0  0  0  0
    0.6332  -51.5092  -20.0375 C   0  0  0  0  0  0  0  0  0  0  0  0
    0.6053  -50.3434  -20.9909 C   0  0  0  0  0  0  0  0  0  0  0  0
    1.6407  -49.3395  -20.4726 C   0  0  0  0  0  0  0  0  0  0  0  0
    2.9331  -49.9204  -20.4589 N   0  0  0  0  0  0  0  0  0  0  0  0
    3.0115  -51.2975  -20.8046 C   0  0  0  0  0  0  0  0  0  0  0  0
    1.9913  -52.1652  -20.1148 C   0  0  0  0  0  0  0  0  0  0  0  0
    3.8399  -49.1654  -21.2804 C   0  0  0  0  0  0  0  0  0  0  0  0
    5.2479  -49.2524  -20.8905 C   0  0  0  0  0  0  0  0  0  0  0  0
    6.0972  -49.9177  -21.7642 C   0  0  0  0  0  0  0  0  0  0  0  0
    7.4465  -50.0603  -21.5187 C   0  0  0  0  0  0  0  0  0  0  0  0
    7.9347  -49.5125  -20.3587 C   0  0  0  0  0  0  0  0  0  0  0  0
    7.1020  -48.8535  -19.4898 C   0  0  0  0  0  0  0  0  0  0  0  0
    5.7643  -48.7174  -19.7425 C   0  0  0  0  0  0  0  0  0  0  0  0
  2  3  2  0  0  0
  3  4  1  0  0  0
  4  1  1  0  0  0
  1 15  1  0  0  0
 15 16  1  0  0  0
 16 17  1  0  0  0
 17 18  1  0  0  0
 18 19  1  0  0  0
 19 22  1  0  0  0
 22 23  1  0  0  0
 23 24  2  0  0  0
 24 25  1  0  0  0
 25 26  2  0  0  0
 26 27  1  0  0  0
 27 28  2  0  0  0
 19 20  1  0  0  0
 20 21  1  0  0  0
  3  6  1  0  0  0
  6  7  2  0  0  0
  7  8  1  0  0  0
  8  9  2  0  0  0
  9 10  1  0  0  0
 10 12  1  0  0  0
 12 13  2  0  0  0
 12 14  1  0  0  0
 10 11  2  0  0  0
 21 16  1  0  0  0
 11  6  1  0  0  0
 28 23  1  0  0  0
  4  5  1  0  0  0
M  CHG 1  12   1
M  CHG 1  14  -1
M  END
> <minimizedAffinity>
-7.17175

> <CNNscore>
0.1726223975

> <CNNaffinity>
5.8415942192

> <CNN_VS>
1.0083899498

> <CNNaffinity_variance>
0.1734710932

$$$$
[H]OC(=O)c1c([H])c([H])c(OC2([H])C([H])([H])SC2([H])[H])c([H])c1[H]


 15 16  0  0  0  0  0  0  0  0999 V2000
    0.0052  -53.0074  -21.2583 C   0  0  0  0  0  0  0  0  0  0  0  0
   -0.5656  -54.2051  -21.6649 C   0  0  0  0  0  0  0  0  0  0  0  0
   -0.8038  -54.4236  -23.0173 C   0  0  0  0  0  0  0  0  0  0  0  0
   -0.4945  -53.4924  -23.9812 C   0  0  0  0  0  0  0  0  0  0  0  0
    0.0762  -52.2981  -23.5619 C   0  0  0  0  0  0  0  0  0  0  0  0
    0.3239  -52.0578  -22.2107 C   0  0  0  0  0  0  0  0  0  0  0  0
   -0.6237  -53.0790  -18.9869 O   0  0  0  0  0  0  0  0  0  0  0  0
    0.2556  -52.7786  -19.8330 C   0  0  0  0  0  0  0  0  0  0  0  0
    1.4588  -52.2325  -19.4209 O   0  0  0  0  0  0  0  0  0  0  0  0
    1.4872  -51.2326  -19.2172 H   0  0  0  0  0  0  0  0  0  0  0  0
   -0.7169  -53.6901  -25.2707 O   0  0  0  0  0  0  0  0  0  0  0  0
   -0.3258  -53.2876  -26.4732 C   0  0  0  0  0  0  0  0  0  0  0  0
    0.0715  -54.3428  -27.5155 C   0  0  0  0  0  0  0  0  0  0  0  0
    0.1201  -52.9487  -28.6869 S   0  0  0  0  0  0  0  0  0  0  0  0
   -1.2598  -52.7412  -27.4980 C   0  0  0  0  0  0  0  0  0  0  0  0
  7  8  2  0  0  0
  8  9  1  0  0  0
  8  1  1  0  0  0
  1  2  2  0  0  0
  2  3  1  0  0  0
  3  4  2  0  0  0
  4 11  1  0  0  0
 11 12  1  0  0  0
 12 13  1  0  0  0
 13 14  1  0  0  0
 14 15  1  0  0  0
  4  5  1  0  0  0
  5  6  2  0  0  0
  6  1  1  0  0  0
 15 12  1  0  0  0
  9 10  1  0  0  0
M  END
> <minimizedAffinity>
-5.58479

> <CNNscore>
0.5016452670

> <CNNaffinity>
4.2062501907

> <CNN_VS>
2.1100454330

> <CNNaffinity_variance>
0.1021574959

$$$$
[H]OC(=O)c1c([H])c([H])c(OC2([H])C([H])([H])SC2([H])[H])c([H])c1[H]


 15 16  0  0  0  0  0  0  0  0999 V2000
   -0.4181  -53.0241  -20.6630 C   0  0  0  0  0  0  0  0  0  0  0  0
    0.1241  -52.1112  -21.5564 C   0  0  0  0  0  0  0  0  0  0  0  0
    0.1482  -52.4151  -22.9130 C   0  0  0  0  0  0  0  0  0  0  0  0
   -0.3482  -53.5961  -23.4139 C   0  0  0  0  0  0  0  0  0  0  0  0
   -0.8882  -54.5013  -22.5101 C   0  0  0  0  0  0  0  0  0  0  0  0
   -0.9227  -54.2171  -21.1452 C   0  0  0  0  0  0  0  0  0  0  0  0
    0.2910  -51.7859  -18.7858 O   0  0  0  0  0  0  0  0  0  0  0  0
   -0.4429  -52.7025  -19.2338 C   0  0  0  0  0  0  0  0  0  0  0  0
   -1.2734  -53.4077  -18.3802 O   0  0  0  0  0  0  0  0  0  0  0  0
   -0.8660  -54.1678  -17.8340 H   0  0  0  0  0  0  0  0  0  0  0  0
   -0.3303  -53.8953  -24.7028 O   0  0  0  0  0  0  0  0  0  0  0  0
   -0.0492  -53.3788  -25.8925 C   0  0  0  0  0  0  0  0  0  0  0  0
    0.0712  -54.3200  -27.0998 C   0  0  0  0  0  0  0  0  0  0  0  0
    0.1469  -52.7937  -28.0909 S   0  0  0  0  0  0  0  0  0  0  0  0
   -1.0297  -52.5981  -26.6989 C   0  0  0  0  0  0  0  0  0  0  0  0
  7  8  2  0  0  0
  8  9  1  0  0  0
  8  1  1  0  0  0
  1  2  2  0  0  0
  2  3  1  0  0  0
  3  4  2  0  0  0
  4 11  1  0  0  0
 11 12  1  0  0  0
 12 13  1  0  0  0
 13 14  1  0  0  0
 14 15  1  0  0  0
  4  5  1  0  0  0
  5  6  2  0  0  0
  6  1  1  0  0  0
 15 12  1  0  0  0
  9 10  1  0  0  0
M  END
> <minimizedAffinity>
-5.73378

> <CNNscore>
0.4773979783

> <CNNaffinity>
4.1253476143

> <CNN_VS>
1.9694325924

> <CNNaffinity_variance>
0.2300953418

$$$$
[H]OC(=O)c1c([H])c([H])c(OC2([H])C([H])([H])SC2([H])[H])c([H])c1[H]


 15 16  0  0  0  0  0  0  0  0999 V2000
    2.9775  -49.4931  -20.5690 C   0  0  0  0  0  0  0  0  0  0  0  0
    4.2621  -48.9686  -20.5655 C   0  0  0  0  0  0  0  0  0  0  0  0
    4.7750  -48.4106  -21.7312 C   0  0  0  0  0  0  0  0  0  0  0  0
    4.0553  -48.3555  -22.9021 C   0  0  0  0  0  0  0  0  0  0  0  0
    2.7712  -48.8835  -22.8929 C   0  0  0  0  0  0  0  0  0  0  0  0
    2.2368  -49.4480  -21.7350 C   0  0  0  0  0  0  0  0  0  0  0  0
    2.7740  -49.6128  -18.2229 O   0  0  0  0  0  0  0  0  0  0  0  0
    2.4383  -50.0808  -19.3399 C   0  0  0  0  0  0  0  0  0  0  0  0
    1.5612  -51.1491  -19.4107 O   0  0  0  0  0  0  0  0  0  0  0  0
    1.9359  -52.0878  -19.2670 H   0  0  0  0  0  0  0  0  0  0  0  0
    4.5337  -47.8268  -24.0169 O   0  0  0  0  0  0  0  0  0  0  0  0
    4.2036  -47.0197  -25.0173 C   0  0  0  0  0  0  0  0  0  0  0  0
    3.0945  -47.4550  -25.9860 C   0  0  0  0  0  0  0  0  0  0  0  0
    3.2203  -45.7640  -26.6514 S   0  0  0  0  0  0  0  0  0  0  0  0
    3.4362  -45.7558  -24.8310 C   0  0  0  0  0  0  0  0  0  0  0  0
  7  8  2  0  0  0
  8  9  1  0  0  0
  8  1  1  0  0  0
  1  2  2  0  0  0
  2  3  1  0  0  0
  3  4  2  0  0  0
  4 11  1  0  0  0
 11 12  1  0  0  0
 12 13  1  0  0  0
 13 14  1  0  0  0
 14 15  1  0  0  0
  4  5  1  0  0  0
  5  6  2  0  0  0
  6  1  1  0  0  0
 15 12  1  0  0  0
  9 10  1  0  0  0
M  END
> <minimizedAffinity>
-2.30687

> <CNNscore>
0.3739588261

> <CNNaffinity>
3.5043404102

> <CNN_VS>
1.3104790449

> <CNNaffinity_variance>
0.2848949730

$$$$
[H]OC(=O)c1c([H])c([H])c(OC2([H])C([H])([H])SC2([H])[H])c([H])c1[H]


 15 16  0  0  0  0  0  0  0  0999 V2000
   -0.5700  -52.7914  -20.9021 C   0  0  0  0  0  0  0  0  0  0  0  0
   -0.1082  -51.5969  -21.4365 C   0  0  0  0  0  0  0  0  0  0  0  0
    0.4307  -50.6336  -20.5910 C   0  0  0  0  0  0  0  0  0  0  0  0
    0.5269  -50.8156  -19.2310 C   0  0  0  0  0  0  0  0  0  0  0  0
    0.0616  -52.0147  -18.7082 C   0  0  0  0  0  0  0  0  0  0  0  0
   -0.4827  -52.9949  -19.5378 C   0  0  0  0  0  0  0  0  0  0  0  0
   -1.9698  -54.6353  -21.3491 O   0  0  0  0  0  0  0  0  0  0  0  0
   -1.1375  -53.8055  -21.7942 C   0  0  0  0  0  0  0  0  0  0  0  0
   -0.7568  -53.8483  -23.1242 O   0  0  0  0  0  0  0  0  0  0  0  0
   -0.0437  -54.5257  -23.3975 H   0  0  0  0  0  0  0  0  0  0  0  0
    1.0379  -49.9055  -18.4174 O   0  0  0  0  0  0  0  0  0  0  0  0
    1.7027  -49.7786  -17.2759 C   0  0  0  0  0  0  0  0  0  0  0  0
    3.1480  -50.2915  -17.1985 C   0  0  0  0  0  0  0  0  0  0  0  0
    3.1934  -49.4682  -15.5743 S   0  0  0  0  0  0  0  0  0  0  0  0
    2.2214  -48.4760  -16.7706 C   0  0  0  0  0  0  0  0  0  0  0  0
  7  8  2  0  0  0
  8  9  1  0  0  0
  8  1  1  0  0  0
  1  2  2  0  0  0
  2  3  1  0  0  0
  3  4  2  0  0  0
  4 11  1  0  0  0
 11 12  1  0  0  0
 12 13  1  0  0  0
 13 14  1  0  0  0
 14 15  1  0  0  0
  4  5  1  0  0  0
  5  6  2  0  0  0
  6  1  1  0  0  0
 15 12  1  0  0  0
  9 10  1  0  0  0
M  END
> <minimizedAffinity>
-4.56628

> <CNNscore>
0.3465079069

> <CNNaffinity>
3.4890656471

> <CNN_VS>
1.2089887857

> <CNNaffinity_variance>
0.1312026083

$$$$
[H]OC(=O)c1c([H])c([H])c(OC2([H])C([H])([H])SC2([H])[H])c([H])c1[H]


 15 16  0  0  0  0  0  0  0  0999 V2000
   -0.6065  -53.8523  -22.8080 C   0  0  0  0  0  0  0  0  0  0  0  0
   -0.3542  -54.6118  -21.6743 C   0  0  0  0  0  0  0  0  0  0  0  0
   -0.0143  -53.9736  -20.4867 C   0  0  0  0  0  0  0  0  0  0  0  0
    0.0842  -52.6054  -20.3857 C   0  0  0  0  0  0  0  0  0  0  0  0
   -0.1705  -51.8565  -21.5268 C   0  0  0  0  0  0  0  0  0  0  0  0
   -0.5131  -52.4756  -22.7286 C   0  0  0  0  0  0  0  0  0  0  0  0
   -0.8661  -53.9120  -25.1508 O   0  0  0  0  0  0  0  0  0  0  0  0
   -0.9646  -54.5261  -24.0587 C   0  0  0  0  0  0  0  0  0  0  0  0
   -1.4105  -55.8362  -24.0359 O   0  0  0  0  0  0  0  0  0  0  0  0
   -2.4170  -56.0013  -24.0794 H   0  0  0  0  0  0  0  0  0  0  0  0
    0.4070  -51.9880  -19.2606 O   0  0  0  0  0  0  0  0  0  0  0  0
   -0.1265  -51.4735  -18.1598 C   0  0  0  0  0  0  0  0  0  0  0  0
   -0.8950  -52.3991  -17.2057 C   0  0  0  0  0  0  0  0  0  0  0  0
   -0.9154  -50.9694  -16.0772 S   0  0  0  0  0  0  0  0  0  0  0  0
    0.6789  -51.0542  -16.9780 C   0  0  0  0  0  0  0  0  0  0  0  0
  7  8  2  0  0  0
  8  9  1  0  0  0
  8  1  1  0  0  0
  1  2  2  0  0  0
  2  3  1  0  0  0
  3  4  2  0  0  0
  4 11  1  0  0  0
 11 12  1  0  0  0
 12 13  1  0  0  0
 13 14  1  0  0  0
 14 15  1  0  0  0
  4  5  1  0  0  0
  5  6  2  0  0  0
  6  1  1  0  0  0
 15 12  1  0  0  0
  9 10  1  0  0  0
M  END
> <minimizedAffinity>
-5.59988

> <CNNscore>
0.3413054943

> <CNNaffinity>
3.8131518364

> <CNN_VS>
1.3014496565

> <CNNaffinity_variance>
0.1605542451

$$$$
[H]OC(=O)c1c([H])c([H])c(OC2([H])C([H])([H])SC2([H])[H])c([H])c1[H]


 15 16  0  0  0  0  0  0  0  0999 V2000
    4.4605  -49.8514  -24.6865 C   0  0  0  0  0  0  0  0  0  0  0  0
    3.4645  -49.9407  -25.6486 C   0  0  0  0  0  0  0  0  0  0  0  0
    3.5725  -49.1912  -26.8148 C   0  0  0  0  0  0  0  0  0  0  0  0
    4.6368  -48.3548  -27.0589 C   0  0  0  0  0  0  0  0  0  0  0  0
    5.6269  -48.2741  -26.0889 C   0  0  0  0  0  0  0  0  0  0  0  0
    5.5390  -49.0169  -24.9118 C   0  0  0  0  0  0  0  0  0  0  0  0
    5.1824  -51.5475  -23.2162 O   0  0  0  0  0  0  0  0  0  0  0  0
    4.3455  -50.6418  -23.4583 C   0  0  0  0  0  0  0  0  0  0  0  0
    3.3165  -50.3901  -22.5673 O   0  0  0  0  0  0  0  0  0  0  0  0
    2.4928  -50.9919  -22.6034 H   0  0  0  0  0  0  0  0  0  0  0  0
    4.7494  -47.6372  -28.1651 O   0  0  0  0  0  0  0  0  0  0  0  0
    4.0713  -47.2639  -29.2431 C   0  0  0  0  0  0  0  0  0  0  0  0
    2.9320  -46.2463  -29.0868 C   0  0  0  0  0  0  0  0  0  0  0  0
    2.9089  -46.2194  -30.9080 S   0  0  0  0  0  0  0  0  0  0  0  0
    4.6287  -46.3606  -30.2893 C   0  0  0  0  0  0  0  0  0  0  0  0
  7  8  2  0  0  0
  8  9  1  0  0  0
  8  1  1  0  0  0
  1  2  2  0  0  0
  2  3  1  0  0  0
  3  4  2  0  0  0
  4 11  1  0  0  0
 11 12  1  0  0  0
 12 13  1  0  0  0
 13 14  1  0  0  0
 14 15  1  0  0  0
  4  5  1  0  0  0
  5  6  2  0  0  0
  6  1  1  0  0  0
 15 12  1  0  0  0
  9 10  1  0  0  0
M  END
> <minimizedAffinity>
-2.74657

> <CNNscore>
0.3212553859

> <CNNaffinity>
3.3074970245

> <CNN_VS>
1.0625512600

> <CNNaffinity_variance>
0.5544971824

$$$$
[H]OC(=O)c1c([H])c([H])c(OC2([H])C([H])([H])SC2([H])[H])c([H])c1[H]


 15 16  0  0  0  0  0  0  0  0999 V2000
    3.3024  -48.8363  -25.9510 C   0  0  0  0  0  0  0  0  0  0  0  0
    3.0965  -50.0686  -26.5546 C   0  0  0  0  0  0  0  0  0  0  0  0
    2.7568  -51.1651  -25.7700 C   0  0  0  0  0  0  0  0  0  0  0  0
    2.6143  -51.0800  -24.4045 C   0  0  0  0  0  0  0  0  0  0  0  0
    2.8229  -49.8417  -23.8122 C   0  0  0  0  0  0  0  0  0  0  0  0
    3.1644  -48.7286  -24.5800 C   0  0  0  0  0  0  0  0  0  0  0  0
    2.7956  -46.8091  -27.0433 O   0  0  0  0  0  0  0  0  0  0  0  0
    3.6604  -47.6818  -26.7790 C   0  0  0  0  0  0  0  0  0  0  0  0
    4.9487  -47.5541  -27.2684 O   0  0  0  0  0  0  0  0  0  0  0  0
    5.1273  -47.8439  -28.2307 H   0  0  0  0  0  0  0  0  0  0  0  0
    2.2914  -52.1170  -23.6485 O   0  0  0  0  0  0  0  0  0  0  0  0
    1.2460  -52.7405  -23.1196 C   0  0  0  0  0  0  0  0  0  0  0  0
    0.7403  -52.2992  -21.7385 C   0  0  0  0  0  0  0  0  0  0  0  0
   -0.6670  -53.4080  -22.0668 S   0  0  0  0  0  0  0  0  0  0  0  0
   -0.1509  -52.5526  -23.6038 C   0  0  0  0  0  0  0  0  0  0  0  0
  7  8  2  0  0  0
  8  9  1  0  0  0
  8  1  1  0  0  0
  1  2  2  0  0  0
  2  3  1  0  0  0
  3  4  2  0  0  0
  4 11  1  0  0  0
 11 12  1  0  0  0
 12 13  1  0  0  0
 13 14  1  0  0  0
 14 15  1  0  0  0
  4  5  1  0  0  0
  5  6  2  0  0  0
  6  1  1  0  0  0
 15 12  1  0  0  0
  9 10  1  0  0  0
M  END
> <minimizedAffinity>
-3.46843

> <CNNscore>
0.3053360879

> <CNNaffinity>
3.8021900654

> <CNN_VS>
1.1609458923

> <CNNaffinity_variance>
0.4020106792

$$$$
[H]OC(=O)c1c([H])c([H])c(OC2([H])C([H])([H])SC2([H])[H])c([H])c1[H]


 15 16  0  0  0  0  0  0  0  0999 V2000
    0.6520  -53.3060  -27.1162 C   0  0  0  0  0  0  0  0  0  0  0  0
    0.3227  -54.3884  -26.3129 C   0  0  0  0  0  0  0  0  0  0  0  0
   -0.1964  -54.1633  -25.0428 C   0  0  0  0  0  0  0  0  0  0  0  0
   -0.4001  -52.8986  -24.5420 C   0  0  0  0  0  0  0  0  0  0  0  0
   -0.0668  -51.8237  -25.3552 C   0  0  0  0  0  0  0  0  0  0  0  0
    0.4552  -52.0263  -26.6325 C   0  0  0  0  0  0  0  0  0  0  0  0
    2.1246  -54.3797  -28.6122 O   0  0  0  0  0  0  0  0  0  0  0  0
    1.1988  -53.5446  -28.4543 C   0  0  0  0  0  0  0  0  0  0  0  0
    0.6957  -52.8510  -29.5412 O   0  0  0  0  0  0  0  0  0  0  0  0
    1.2117  -52.0336  -29.8694 H   0  0  0  0  0  0  0  0  0  0  0  0
   -0.8934  -52.6731  -23.3349 O   0  0  0  0  0  0  0  0  0  0  0  0
   -0.5759  -52.7315  -22.0477 C   0  0  0  0  0  0  0  0  0  0  0  0
   -0.5162  -54.1032  -21.3601 C   0  0  0  0  0  0  0  0  0  0  0  0
    0.1958  -53.1968  -19.9496 S   0  0  0  0  0  0  0  0  0  0  0  0
    0.8037  -52.5013  -21.5331 C   0  0  0  0  0  0  0  0  0  0  0  0
  7  8  2  0  0  0
  8  9  1  0  0  0
  8  1  1  0  0  0
  1  2  2  0  0  0
  2  3  1  0  0  0
  3  4  2  0  0  0
  4 11  1  0  0  0
 11 12  1  0  0  0
 12 13  1  0  0  0
 13 14  1  0  0  0
 14 15  1  0  0  0
  4  5  1  0  0  0
  5  6  2  0  0  0
  6  1  1  0  0  0
 15 12  1  0  0  0
  9 10  1  0  0  0
M  END
> <minimizedAffinity>
-6.02095

> <CNNscore>
0.2922797203

> <CNNaffinity>
4.2827320099

> <CNN_VS>
1.2517557144

> <CNNaffinity_variance>
0.1524322033

$$$$
[H]OC(=O)c1c([H])c([H])c(OC2([H])C([H])([H])SC2([H])[H])c([H])c1[H]


 15 16  0  0  0  0  0  0  0  0999 V2000
    0.6059  -53.3905  -27.1364 C   0  0  0  0  0  0  0  0  0  0  0  0
    0.4217  -52.1084  -26.6387 C   0  0  0  0  0  0  0  0  0  0  0  0
   -0.1003  -51.9404  -25.3609 C   0  0  0  0  0  0  0  0  0  0  0  0
   -0.4465  -53.0032  -24.5593 C   0  0  0  0  0  0  0  0  0  0  0  0
   -0.2575  -54.2810  -25.0685 C   0  0  0  0  0  0  0  0  0  0  0  0
    0.2646  -54.4727  -26.3474 C   0  0  0  0  0  0  0  0  0  0  0  0
    2.1129  -54.3590  -28.6695 O   0  0  0  0  0  0  0  0  0  0  0  0
    1.1561  -53.5660  -28.4829 C   0  0  0  0  0  0  0  0  0  0  0  0
    0.6219  -52.8590  -29.5462 O   0  0  0  0  0  0  0  0  0  0  0  0
    1.1044  -52.0123  -29.8502 H   0  0  0  0  0  0  0  0  0  0  0  0
   -0.9440  -52.8546  -23.3420 O   0  0  0  0  0  0  0  0  0  0  0  0
   -0.5972  -52.8716  -22.0612 C   0  0  0  0  0  0  0  0  0  0  0  0
   -0.3499  -54.2243  -21.3779 C   0  0  0  0  0  0  0  0  0  0  0  0
    0.2674  -53.2342  -19.9792 S   0  0  0  0  0  0  0  0  0  0  0  0
    0.7514  -52.4672  -21.5723 C   0  0  0  0  0  0  0  0  0  0  0  0
  7  8  2  0  0  0
  8  9  1  0  0  0
  8  1  1  0  0  0
  1  2  2  0  0  0
  2  3  1  0  0  0
  3  4  2  0  0  0
  4 11  1  0  0  0
 11 12  1  0  0  0
 12 13  1  0  0  0
 13 14  1  0  0  0
 14 15  1  0  0  0
  4  5  1  0  0  0
  5  6  2  0  0  0
  6  1  1  0  0  0
 15 12  1  0  0  0
  9 10  1  0  0  0
M  END
> <minimizedAffinity>
-6.03136

> <CNNscore>
0.2920016348

> <CNNaffinity>
4.2832393646

> <CNN_VS>
1.2507128716

> <CNNaffinity_variance>
0.1568053663

$$$$
[H]C([H])=C([H])C(=O)N([H])C([H])([H])C([H])([H])C([H])([H])C([H])([H])[C@@]([H])(C(=O)N1C([H])([H])C([H])([H])N(c2c([H])c([H])c([H])c(C([H])([H])[H])c2[H])C([H])([H])C1([H])[H])N([H])C(=O)C([H])([H])c1c([H])c([H])c([H])c([H])c1[H]


 37 39  0  0  0  0  0  0  0  0999 V2000
    4.3765  -50.4837  -21.3791 C   0  0  0  0  0  0  0  0  0  0  0  0
    4.3415  -51.4639  -22.4758 C   0  0  0  0  0  0  0  0  0  0  0  0
    5.2946  -52.3185  -22.5412 O   0  0  0  0  0  0  0  0  0  0  0  0
    3.3240  -51.5160  -23.4488 N   0  0  0  0  0  0  0  0  0  0  0  0
    2.2065  -50.6177  -23.4400 C   0  0  0  0  0  0  0  0  0  0  0  0
    0.9782  -51.3678  -23.9447 C   0  0  0  0  0  0  0  0  0  0  0  0
    1.2596  -51.7714  -25.3093 N   0  0  0  0  0  0  0  0  0  0  0  0
    2.6220  -51.9304  -25.7199 C   0  0  0  0  0  0  0  0  0  0  0  0
    3.3684  -52.5088  -24.5178 C   0  0  0  0  0  0  0  0  0  0  0  0
    0.1998  -52.0137  -26.2209 C   0  0  0  0  0  0  0  0  0  0  0  0
   -1.1053  -51.9050  -25.7489 C   0  0  0  0  0  0  0  0  0  0  0  0
   -2.1481  -52.1291  -26.6112 C   0  0  0  0  0  0  0  0  0  0  0  0
   -1.9435  -52.4569  -27.9245 C   0  0  0  0  0  0  0  0  0  0  0  0
   -0.6651  -52.5707  -28.4159 C   0  0  0  0  0  0  0  0  0  0  0  0
   -0.4052  -52.9233  -29.8210 C   0  0  0  0  0  0  0  0  0  0  0  0
    0.3845  -52.3434  -27.5419 C   0  0  0  0  0  0  0  0  0  0  0  0
    3.4508  -49.3644  -21.6817 N   0  0  0  0  0  0  0  0  0  0  0  0
    3.9362  -48.0521  -21.8252 C   0  0  0  0  0  0  0  0  0  0  0  0
    5.1665  -47.8377  -21.6937 O   0  0  0  0  0  0  0  0  0  0  0  0
    2.4624  -49.5879  -21.7792 H   0  0  0  0  0  0  0  0  0  0  0  0
    3.0025  -46.9617  -22.1253 C   0  0  0  0  0  0  0  0  0  0  0  0
    2.9437  -46.6069  -23.5443 C   0  0  0  0  0  0  0  0  0  0  0  0
    2.3168  -45.4174  -23.8827 C   0  0  0  0  0  0  0  0  0  0  0  0
    2.2121  -45.0030  -25.1969 C   0  0  0  0  0  0  0  0  0  0  0  0
    2.7278  -45.7582  -26.2179 C   0  0  0  0  0  0  0  0  0  0  0  0
    3.3529  -46.9404  -25.9006 C   0  0  0  0  0  0  0  0  0  0  0  0
    3.4568  -47.3552  -24.5763 C   0  0  0  0  0  0  0  0  0  0  0  0
    3.8233  -51.0458  -20.0756 C   0  0  0  0  0  0  0  0  0  0  0  0
    2.3326  -51.0587  -20.0035 C   0  0  0  0  0  0  0  0  0  0  0  0
    1.7522  -52.3965  -19.5709 C   0  0  0  0  0  0  0  0  0  0  0  0
    0.2960  -52.4885  -19.8695 C   0  0  0  0  0  0  0  0  0  0  0  0
   -0.9392  -53.8192  -21.5668 C   0  0  0  0  0  0  0  0  0  0  0  0
   -1.6784  -54.3365  -20.6523 O   0  0  0  0  0  0  0  0  0  0  0  0
    0.0630  -52.8847  -21.2404 N   0  0  0  0  0  0  0  0  0  0  0  0
    0.6704  -52.4501  -21.9929 H   0  0  0  0  0  0  0  0  0  0  0  0
   -1.1166  -55.4812  -23.3151 C   0  0  0  0  0  0  0  0  0  0  0  0
   -1.1728  -54.2280  -22.9239 C   0  0  0  0  0  0  0  0  0  0  0  0
 36 37  2  0  0  0
 37 32  1  0  0  0
 32 33  2  0  0  0
 32 34  1  0  0  0
 34 31  1  0  0  0
 31 30  1  0  0  0
 30 29  1  0  0  0
 29 28  1  0  0  0
 28  1  1  0  0  0
  1 17  1  0  0  0
 17 18  1  0  0  0
 18 19  2  0  0  0
 18 21  1  0  0  0
 21 22  1  0  0  0
 22 23  2  0  0  0
 23 24  1  0  0  0
 24 25  2  0  0  0
 25 26  1  0  0  0
 26 27  2  0  0  0
  1  2  1  0  0  0
  2  3  2  0  0  0
  2  4  1  0  0  0
  4  5  1  0  0  0
  5  6  1  0  0  0
  6  7  1  0  0  0
  7 10  1  0  0  0
 10 11  2  0  0  0
 11 12  1  0  0  0
 12 13  2  0  0  0
 13 14  1  0  0  0
 14 15  1  0  0  0
 14 16  2  0  0  0
  7  8  1  0  0  0
  8  9  1  0  0  0
 27 22  1  0  0  0
  9  4  1  0  0  0
 16 10  1  0  0  0
 34 35  1  0  0  0
 17 20  1  0  0  0
M  END
> <minimizedAffinity>
-7.57652

> <CNNscore>
0.4006229937

> <CNNaffinity>
6.8383398056

> <CNN_VS>
2.7395961285

> <CNNaffinity_variance>
0.2104115933

$$$$
[H]C([H])=C([H])C(=O)N([H])C([H])([H])C([H])([H])C([H])([H])C([H])([H])[C@@]([H])(C(=O)N1C([H])([H])C([H])([H])N(c2c([H])c([H])c([H])c(C([H])([H])[H])c2[H])C([H])([H])C1([H])[H])N([H])C(=O)C([H])([H])c1c([H])c([H])c([H])c([H])c1[H]


 37 39  0  0  0  0  0  0  0  0999 V2000
   -0.0538  -52.2764  -19.7958 C   0  0  0  0  0  0  0  0  0  0  0  0
   -0.7207  -53.2025  -20.7246 C   0  0  0  0  0  0  0  0  0  0  0  0
   -1.5522  -54.0443  -20.2315 O   0  0  0  0  0  0  0  0  0  0  0  0
   -0.4992  -53.2126  -22.1158 N   0  0  0  0  0  0  0  0  0  0  0  0
    0.3927  -52.2919  -22.7580 C   0  0  0  0  0  0  0  0  0  0  0  0
   -0.1751  -51.9448  -24.1303 C   0  0  0  0  0  0  0  0  0  0  0  0
   -0.2235  -53.1779  -24.8927 N   0  0  0  0  0  0  0  0  0  0  0  0
   -0.3041  -54.4246  -24.1932 C   0  0  0  0  0  0  0  0  0  0  0  0
   -1.1872  -54.1751  -22.9706 C   0  0  0  0  0  0  0  0  0  0  0  0
   -0.2007  -53.1482  -26.3110 C   0  0  0  0  0  0  0  0  0  0  0  0
   -1.2782  -52.5623  -26.9694 C   0  0  0  0  0  0  0  0  0  0  0  0
   -1.2781  -52.5159  -28.3402 C   0  0  0  0  0  0  0  0  0  0  0  0
   -0.2482  -53.0293  -29.0815 C   0  0  0  0  0  0  0  0  0  0  0  0
    0.8275  -53.6132  -28.4564 C   0  0  0  0  0  0  0  0  0  0  0  0
    1.9524  -54.1779  -29.2193 C   0  0  0  0  0  0  0  0  0  0  0  0
    0.8233  -53.6575  -27.0725 C   0  0  0  0  0  0  0  0  0  0  0  0
   -0.4978  -52.5569  -18.4082 N   0  0  0  0  0  0  0  0  0  0  0  0
   -0.4405  -51.5561  -17.4216 C   0  0  0  0  0  0  0  0  0  0  0  0
   -0.0076  -50.4183  -17.7295 O   0  0  0  0  0  0  0  0  0  0  0  0
   -0.8409  -53.4940  -18.2071 H   0  0  0  0  0  0  0  0  0  0  0  0
   -0.8858  -51.8561  -16.0569 C   0  0  0  0  0  0  0  0  0  0  0  0
   -2.1935  -51.2891  -15.7231 C   0  0  0  0  0  0  0  0  0  0  0  0
   -2.2160  -50.0455  -15.1104 C   0  0  0  0  0  0  0  0  0  0  0  0
   -3.4040  -49.4341  -14.7573 C   0  0  0  0  0  0  0  0  0  0  0  0
   -4.6090  -50.0397  -15.0023 C   0  0  0  0  0  0  0  0  0  0  0  0
   -4.6054  -51.2729  -15.6092 C   0  0  0  0  0  0  0  0  0  0  0  0
   -3.4075  -51.8862  -15.9636 C   0  0  0  0  0  0  0  0  0  0  0  0
    1.4516  -52.5004  -19.7281 C   0  0  0  0  0  0  0  0  0  0  0  0
    2.2614  -51.2987  -20.0854 C   0  0  0  0  0  0  0  0  0  0  0  0
    3.7632  -51.5305  -20.0186 C   0  0  0  0  0  0  0  0  0  0  0  0
    4.4362  -51.1580  -21.2939 C   0  0  0  0  0  0  0  0  0  0  0  0
    4.2892  -52.1250  -23.5788 C   0  0  0  0  0  0  0  0  0  0  0  0
    5.5650  -52.2690  -23.6214 O   0  0  0  0  0  0  0  0  0  0  0  0
    3.6632  -51.5799  -22.4406 N   0  0  0  0  0  0  0  0  0  0  0  0
    2.6100  -51.4660  -22.3986 H   0  0  0  0  0  0  0  0  0  0  0  0
    3.4649  -51.8317  -25.8336 C   0  0  0  0  0  0  0  0  0  0  0  0
    3.5325  -52.5381  -24.7277 C   0  0  0  0  0  0  0  0  0  0  0  0
 36 37  2  0  0  0
 37 32  1  0  0  0
 32 33  2  0  0  0
 32 34  1  0  0  0
 34 31  1  0  0  0
 31 30  1  0  0  0
 30 29  1  0  0  0
 29 28  1  0  0  0
 28  1  1  0  0  0
  1 17  1  0  0  0
 17 18  1  0  0  0
 18 19  2  0  0  0
 18 21  1  0  0  0
 21 22  1  0  0  0
 22 23  2  0  0  0
 23 24  1  0  0  0
 24 25  2  0  0  0
 25 26  1  0  0  0
 26 27  2  0  0  0
  1  2  1  0  0  0
  2  3  2  0  0  0
  2  4  1  0  0  0
  4  5  1  0  0  0
  5  6  1  0  0  0
  6  7  1  0  0  0
  7 10  1  0  0  0
 10 11  2  0  0  0
 11 12  1  0  0  0
 12 13  2  0  0  0
 13 14  1  0  0  0
 14 15  1  0  0  0
 14 16  2  0  0  0
  7  8  1  0  0  0
  8  9  1  0  0  0
 27 22  1  0  0  0
  9  4  1  0  0  0
 16 10  1  0  0  0
 34 35  1  0  0  0
 17 20  1  0  0  0
M  END
> <minimizedAffinity>
-7.93301

> <CNNscore>
0.3159049153

> <CNNaffinity>
6.7240018845

> <CNN_VS>
2.1241452694

> <CNNaffinity_variance>
0.0570882261

$$$$
[H]C([H])=C([H])C(=O)N([H])C([H])([H])C([H])([H])C([H])([H])C([H])([H])[C@@]([H])(C(=O)N1C([H])([H])C([H])([H])N(c2c([H])c([H])c([H])c(C([H])([H])[H])c2[H])C([H])([H])C1([H])[H])N([H])C(=O)C([H])([H])c1c([H])c([H])c([H])c([H])c1[H]


 37 39  0  0  0  0  0  0  0  0999 V2000
    1.3313  -51.8566  -19.4664 C   0  0  0  0  0  0  0  0  0  0  0  0
    0.3092  -52.5527  -20.2637 C   0  0  0  0  0  0  0  0  0  0  0  0
   -0.6659  -53.0987  -19.6358 O   0  0  0  0  0  0  0  0  0  0  0  0
    0.3417  -52.6486  -21.6688 N   0  0  0  0  0  0  0  0  0  0  0  0
    1.3787  -52.0476  -22.4557 C   0  0  0  0  0  0  0  0  0  0  0  0
    0.7722  -51.5654  -23.7693 C   0  0  0  0  0  0  0  0  0  0  0  0
    0.2654  -52.7377  -24.4572 N   0  0  0  0  0  0  0  0  0  0  0  0
   -0.0928  -53.8926  -23.6903 C   0  0  0  0  0  0  0  0  0  0  0  0
   -0.7020  -53.3720  -22.3885 C   0  0  0  0  0  0  0  0  0  0  0  0
    0.1183  -52.7364  -25.8683 C   0  0  0  0  0  0  0  0  0  0  0  0
    1.2685  -52.8449  -26.6448 C   0  0  0  0  0  0  0  0  0  0  0  0
    1.1533  -52.8514  -28.0116 C   0  0  0  0  0  0  0  0  0  0  0  0
   -0.0610  -52.7543  -28.6359 C   0  0  0  0  0  0  0  0  0  0  0  0
   -1.2120  -52.6461  -27.8927 C   0  0  0  0  0  0  0  0  0  0  0  0
   -2.5353  -52.5377  -28.5278 C   0  0  0  0  0  0  0  0  0  0  0  0
   -1.0910  -52.6402  -26.5134 C   0  0  0  0  0  0  0  0  0  0  0  0
    2.4206  -51.3842  -20.3561 N   0  0  0  0  0  0  0  0  0  0  0  0
    3.6936  -51.0895  -19.8358 C   0  0  0  0  0  0  0  0  0  0  0  0
    3.8986  -51.2311  -18.6051 O   0  0  0  0  0  0  0  0  0  0  0  0
    2.2061  -51.2851  -21.3464 H   0  0  0  0  0  0  0  0  0  0  0  0
    4.7553  -50.6249  -20.7346 C   0  0  0  0  0  0  0  0  0  0  0  0
    4.2598  -49.9786  -21.9510 C   0  0  0  0  0  0  0  0  0  0  0  0
    4.5899  -50.5592  -23.1661 C   0  0  0  0  0  0  0  0  0  0  0  0
    4.1684  -50.0173  -24.3654 C   0  0  0  0  0  0  0  0  0  0  0  0
    3.4042  -48.8798  -24.3956 C   0  0  0  0  0  0  0  0  0  0  0  0
    3.0673  -48.2909  -23.2002 C   0  0  0  0  0  0  0  0  0  0  0  0
    3.4934  -48.8389  -21.9940 C   0  0  0  0  0  0  0  0  0  0  0  0
    0.8095  -50.5670  -18.8456 C   0  0  0  0  0  0  0  0  0  0  0  0
    0.7608  -50.5869  -17.3540 C   0  0  0  0  0  0  0  0  0  0  0  0
   -0.6507  -50.6214  -16.7879 C   0  0  0  0  0  0  0  0  0  0  0  0
   -0.8727  -51.8199  -15.9322 C   0  0  0  0  0  0  0  0  0  0  0  0
   -3.1621  -52.7039  -16.3254 C   0  0  0  0  0  0  0  0  0  0  0  0
   -2.7670  -53.3109  -17.3863 O   0  0  0  0  0  0  0  0  0  0  0  0
   -2.2619  -51.9457  -15.5514 N   0  0  0  0  0  0  0  0  0  0  0  0
   -2.5824  -51.4491  -14.6713 H   0  0  0  0  0  0  0  0  0  0  0  0
   -4.9507  -53.4496  -14.8781 C   0  0  0  0  0  0  0  0  0  0  0  0
   -4.5465  -52.8275  -15.9626 C   0  0  0  0  0  0  0  0  0  0  0  0
 36 37  2  0  0  0
 37 32  1  0  0  0
 32 33  2  0  0  0
 32 34  1  0  0  0
 34 31  1  0  0  0
 31 30  1  0  0  0
 30 29  1  0  0  0
 29 28  1  0  0  0
 28  1  1  0  0  0
  1 17  1  0  0  0
 17 18  1  0  0  0
 18 19  2  0  0  0
 18 21  1  0  0  0
 21 22  1  0  0  0
 22 23  2  0  0  0
 23 24  1  0  0  0
 24 25  2  0  0  0
 25 26  1  0  0  0
 26 27  2  0  0  0
  1  2  1  0  0  0
  2  3  2  0  0  0
  2  4  1  0  0  0
  4  5  1  0  0  0
  5  6  1  0  0  0
  6  7  1  0  0  0
  7 10  1  0  0  0
 10 11  2  0  0  0
 11 12  1  0  0  0
 12 13  2  0  0  0
 13 14  1  0  0  0
 14 15  1  0  0  0
 14 16  2  0  0  0
  7  8  1  0  0  0
  8  9  1  0  0  0
 27 22  1  0  0  0
  9  4  1  0  0  0
 16 10  1  0  0  0
 34 35  1  0  0  0
 17 20  1  0  0  0
M  END
> <minimizedAffinity>
-7.77064

> <CNNscore>
0.2521622479

> <CNNaffinity>
6.4954299927

> <CNN_VS>
1.6379022598

> <CNNaffinity_variance>
0.1611693799

$$$$
[H]C([H])=C([H])C(=O)N([H])C([H])([H])C([H])([H])C([H])([H])C([H])([H])[C@@]([H])(C(=O)N1C([H])([H])C([H])([H])N(c2c([H])c([H])c([H])c(C([H])([H])[H])c2[H])C([H])([H])C1([H])[H])N([H])C(=O)C([H])([H])c1c([H])c([H])c([H])c([H])c1[H]


 37 39  0  0  0  0  0  0  0  0999 V2000
    1.2161  -51.7283  -19.5490 C   0  0  0  0  0  0  0  0  0  0  0  0
    0.3509  -52.6291  -20.3267 C   0  0  0  0  0  0  0  0  0  0  0  0
   -0.4561  -53.3857  -19.6791 O   0  0  0  0  0  0  0  0  0  0  0  0
    0.3587  -52.7028  -21.7336 N   0  0  0  0  0  0  0  0  0  0  0  0
    1.2086  -51.8773  -22.5410 C   0  0  0  0  0  0  0  0  0  0  0  0
    0.4673  -51.5321  -23.8284 C   0  0  0  0  0  0  0  0  0  0  0  0
    0.2142  -52.7821  -24.5195 N   0  0  0  0  0  0  0  0  0  0  0  0
    0.1491  -53.9947  -23.7609 C   0  0  0  0  0  0  0  0  0  0  0  0
   -0.5189  -53.6358  -22.4335 C   0  0  0  0  0  0  0  0  0  0  0  0
    0.0251  -52.8014  -25.9255 C   0  0  0  0  0  0  0  0  0  0  0  0
    1.1417  -53.0030  -26.7319 C   0  0  0  0  0  0  0  0  0  0  0  0
    0.9852  -53.0313  -28.0942 C   0  0  0  0  0  0  0  0  0  0  0  0
   -0.2383  -52.8669  -28.6857 C   0  0  0  0  0  0  0  0  0  0  0  0
   -1.3568  -52.6662  -27.9125 C   0  0  0  0  0  0  0  0  0  0  0  0
   -2.6886  -52.4836  -28.5118 C   0  0  0  0  0  0  0  0  0  0  0  0
   -1.1941  -52.6388  -26.5378 C   0  0  0  0  0  0  0  0  0  0  0  0
    2.3785  -51.3183  -20.3748 N   0  0  0  0  0  0  0  0  0  0  0  0
    3.6352  -51.0971  -19.7832 C   0  0  0  0  0  0  0  0  0  0  0  0
    3.7627  -51.2509  -18.5435 O   0  0  0  0  0  0  0  0  0  0  0  0
    2.2257  -51.2065  -21.3751 H   0  0  0  0  0  0  0  0  0  0  0  0
    4.7702  -50.6933  -20.6196 C   0  0  0  0  0  0  0  0  0  0  0  0
    4.5557  -50.9081  -22.0517 C   0  0  0  0  0  0  0  0  0  0  0  0
    4.7887  -52.1802  -22.5515 C   0  0  0  0  0  0  0  0  0  0  0  0
    4.6147  -52.4748  -23.8904 C   0  0  0  0  0  0  0  0  0  0  0  0
    4.2027  -51.5134  -24.7764 C   0  0  0  0  0  0  0  0  0  0  0  0
    3.9669  -50.2466  -24.2981 C   0  0  0  0  0  0  0  0  0  0  0  0
    4.1431  -49.9530  -22.9493 C   0  0  0  0  0  0  0  0  0  0  0  0
    0.5384  -50.4028  -19.2254 C   0  0  0  0  0  0  0  0  0  0  0  0
    0.2889  -50.1874  -17.7697 C   0  0  0  0  0  0  0  0  0  0  0  0
   -0.2440  -51.4177  -17.0513 C   0  0  0  0  0  0  0  0  0  0  0  0
    0.0231  -51.3605  -15.5872 C   0  0  0  0  0  0  0  0  0  0  0  0
    1.7801  -50.0437  -14.4225 C   0  0  0  0  0  0  0  0  0  0  0  0
    0.8856  -49.3470  -13.8186 O   0  0  0  0  0  0  0  0  0  0  0  0
    1.4131  -51.0691  -15.3160 N   0  0  0  0  0  0  0  0  0  0  0  0
    2.1481  -51.6511  -15.8109 H   0  0  0  0  0  0  0  0  0  0  0  0
    4.0296  -50.6417  -13.7651 C   0  0  0  0  0  0  0  0  0  0  0  0
    3.1576  -49.7385  -14.1532 C   0  0  0  0  0  0  0  0  0  0  0  0
 36 37  2  0  0  0
 37 32  1  0  0  0
 32 33  2  0  0  0
 32 34  1  0  0  0
 34 31  1  0  0  0
 31 30  1  0  0  0
 30 29  1  0  0  0
 29 28  1  0  0  0
 28  1  1  0  0  0
  1 17  1  0  0  0
 17 18  1  0  0  0
 18 19  2  0  0  0
 18 21  1  0  0  0
 21 22  1  0  0  0
 22 23  2  0  0  0
 23 24  1  0  0  0
 24 25  2  0  0  0
 25 26  1  0  0  0
 26 27  2  0  0  0
  1  2  1  0  0  0
  2  3  2  0  0  0
  2  4  1  0  0  0
  4  5  1  0  0  0
  5  6  1  0  0  0
  6  7  1  0  0  0
  7 10  1  0  0  0
 10 11  2  0  0  0
 11 12  1  0  0  0
 12 13  2  0  0  0
 13 14  1  0  0  0
 14 15  1  0  0  0
 14 16  2  0  0  0
  7  8  1  0  0  0
  8  9  1  0  0  0
 27 22  1  0  0  0
  9  4  1  0  0  0
 16 10  1  0  0  0
 34 35  1  0  0  0
 17 20  1  0  0  0
M  END
> <minimizedAffinity>
-7.11105

> <CNNscore>
0.2433869690

> <CNNaffinity>
6.5090150833

> <CNN_VS>
1.5842094421

> <CNNaffinity_variance>
0.2200132161

$$$$
[H]C([H])=C([H])C(=O)N([H])C([H])([H])C([H])([H])C([H])([H])C([H])([H])[C@@]([H])(C(=O)N1C([H])([H])C([H])([H])N(c2c([H])c([H])c([H])c(C([H])([H])[H])c2[H])C([H])([H])C1([H])[H])N([H])C(=O)C([H])([H])c1c([H])c([H])c([H])c([H])c1[H]


 37 39  0  0  0  0  0  0  0  0999 V2000
    1.2320  -51.5768  -19.5676 C   0  0  0  0  0  0  0  0  0  0  0  0
    0.4207  -52.5288  -20.3424 C   0  0  0  0  0  0  0  0  0  0  0  0
   -0.3325  -53.3366  -19.6918 O   0  0  0  0  0  0  0  0  0  0  0  0
    0.4241  -52.5985  -21.7494 N   0  0  0  0  0  0  0  0  0  0  0  0
    1.2147  -51.7188  -22.5599 C   0  0  0  0  0  0  0  0  0  0  0  0
    0.4447  -51.4183  -23.8416 C   0  0  0  0  0  0  0  0  0  0  0  0
    0.2670  -52.6802  -24.5346 N   0  0  0  0  0  0  0  0  0  0  0  0
    0.2839  -53.8962  -23.7789 C   0  0  0  0  0  0  0  0  0  0  0  0
   -0.3970  -53.5836  -22.4465 C   0  0  0  0  0  0  0  0  0  0  0  0
    0.0705  -52.7080  -25.9394 C   0  0  0  0  0  0  0  0  0  0  0  0
    1.1925  -52.8358  -26.7534 C   0  0  0  0  0  0  0  0  0  0  0  0
    1.0293  -52.8707  -28.1148 C   0  0  0  0  0  0  0  0  0  0  0  0
   -0.2061  -52.7835  -28.6981 C   0  0  0  0  0  0  0  0  0  0  0  0
   -1.3300  -52.6567  -27.9173 C   0  0  0  0  0  0  0  0  0  0  0  0
   -2.6746  -52.5582  -28.5077 C   0  0  0  0  0  0  0  0  0  0  0  0
   -1.1606  -52.6223  -26.5436 C   0  0  0  0  0  0  0  0  0  0  0  0
    2.3977  -51.1424  -20.3761 N   0  0  0  0  0  0  0  0  0  0  0  0
    3.6868  -51.1092  -19.8145 C   0  0  0  0  0  0  0  0  0  0  0  0
    3.8405  -51.4526  -18.6165 O   0  0  0  0  0  0  0  0  0  0  0  0
    2.2229  -50.8735  -21.3424 H   0  0  0  0  0  0  0  0  0  0  0  0
    4.8242  -50.6772  -20.6332 C   0  0  0  0  0  0  0  0  0  0  0  0
    4.6140  -50.8429  -22.0724 C   0  0  0  0  0  0  0  0  0  0  0  0
    4.8262  -52.1028  -22.6109 C   0  0  0  0  0  0  0  0  0  0  0  0
    4.6544  -52.3518  -23.9594 C   0  0  0  0  0  0  0  0  0  0  0  0
    4.2655  -51.3555  -24.8167 C   0  0  0  0  0  0  0  0  0  0  0  0
    4.0504  -50.1002  -24.2999 C   0  0  0  0  0  0  0  0  0  0  0  0
    4.2243  -49.8525  -22.9416 C   0  0  0  0  0  0  0  0  0  0  0  0
    0.4968  -50.2710  -19.2932 C   0  0  0  0  0  0  0  0  0  0  0  0
    1.3824  -49.1590  -18.8383 C   0  0  0  0  0  0  0  0  0  0  0  0
    1.5013  -49.0508  -17.3257 C   0  0  0  0  0  0  0  0  0  0  0  0
    0.2628  -49.5142  -16.6404 C   0  0  0  0  0  0  0  0  0  0  0  0
   -1.6972  -48.6091  -15.4090 C   0  0  0  0  0  0  0  0  0  0  0  0
   -2.1961  -49.7875  -15.2969 O   0  0  0  0  0  0  0  0  0  0  0  0
   -0.4675  -48.4066  -16.0656 N   0  0  0  0  0  0  0  0  0  0  0  0
   -0.0488  -47.4366  -16.1540 H   0  0  0  0  0  0  0  0  0  0  0  0
   -1.8877  -46.5982  -14.0785 C   0  0  0  0  0  0  0  0  0  0  0  0
   -2.4364  -47.5151  -14.8432 C   0  0  0  0  0  0  0  0  0  0  0  0
 36 37  2  0  0  0
 37 32  1  0  0  0
 32 33  2  0  0  0
 32 34  1  0  0  0
 34 31  1  0  0  0
 31 30  1  0  0  0
 30 29  1  0  0  0
 29 28  1  0  0  0
 28  1  1  0  0  0
  1 17  1  0  0  0
 17 18  1  0  0  0
 18 19  2  0  0  0
 18 21  1  0  0  0
 21 22  1  0  0  0
 22 23  2  0  0  0
 23 24  1  0  0  0
 24 25  2  0  0  0
 25 26  1  0  0  0
 26 27  2  0  0  0
  1  2  1  0  0  0
  2  3  2  0  0  0
  2  4  1  0  0  0
  4  5  1  0  0  0
  5  6  1  0  0  0
  6  7  1  0  0  0
  7 10  1  0  0  0
 10 11  2  0  0  0
 11 12  1  0  0  0
 12 13  2  0  0  0
 13 14  1  0  0  0
 14 15  1  0  0  0
 14 16  2  0  0  0
  7  8  1  0  0  0
  8  9  1  0  0  0
 27 22  1  0  0  0
  9  4  1  0  0  0
 16 10  1  0  0  0
 34 35  1  0  0  0
 17 20  1  0  0  0
M  END
> <minimizedAffinity>
-7.21755

> <CNNscore>
0.2418441623

> <CNNaffinity>
6.3274273872

> <CNN_VS>
1.5302513838

> <CNNaffinity_variance>
0.3471632898

$$$$
[H]C([H])=C([H])C(=O)N([H])C([H])([H])C([H])([H])C([H])([H])C([H])([H])[C@@]([H])(C(=O)N1C([H])([H])C([H])([H])N(c2c([H])c([H])c([H])c(C([H])([H])[H])c2[H])C([H])([H])C1([H])[H])N([H])C(=O)C([H])([H])c1c([H])c([H])c([H])c([H])c1[H]


 37 39  0  0  0  0  0  0  0  0999 V2000
    1.2410  -52.0967  -22.7150 C   0  0  0  0  0  0  0  0  0  0  0  0
    0.6496  -52.2052  -21.3722 C   0  0  0  0  0  0  0  0  0  0  0  0
   -0.4228  -52.8963  -21.2479 O   0  0  0  0  0  0  0  0  0  0  0  0
    1.1949  -51.5980  -20.2238 N   0  0  0  0  0  0  0  0  0  0  0  0
    2.4041  -50.8286  -20.2628 C   0  0  0  0  0  0  0  0  0  0  0  0
    3.1595  -51.0471  -18.9561 C   0  0  0  0  0  0  0  0  0  0  0  0
    2.3104  -50.5538  -17.8884 N   0  0  0  0  0  0  0  0  0  0  0  0
    0.8940  -50.5072  -18.0926 C   0  0  0  0  0  0  0  0  0  0  0  0
    0.5393  -51.7378  -18.9272 C   0  0  0  0  0  0  0  0  0  0  0  0
    2.8747  -50.1324  -16.6569 C   0  0  0  0  0  0  0  0  0  0  0  0
    3.1705  -51.1060  -15.7069 C   0  0  0  0  0  0  0  0  0  0  0  0
    3.7217  -50.7254  -14.5100 C   0  0  0  0  0  0  0  0  0  0  0  0
    3.9901  -49.4146  -14.2211 C   0  0  0  0  0  0  0  0  0  0  0  0
    3.7077  -48.4337  -15.1414 C   0  0  0  0  0  0  0  0  0  0  0  0
    3.9801  -47.0137  -14.8664 C   0  0  0  0  0  0  0  0  0  0  0  0
    3.1516  -48.8224  -16.3484 C   0  0  0  0  0  0  0  0  0  0  0  0
    0.4773  -52.9420  -23.6655 N   0  0  0  0  0  0  0  0  0  0  0  0
    1.1314  -53.6066  -24.7185 C   0  0  0  0  0  0  0  0  0  0  0  0
    2.3738  -53.4757  -24.8456 O   0  0  0  0  0  0  0  0  0  0  0  0
   -0.5277  -53.0173  -23.5214 H   0  0  0  0  0  0  0  0  0  0  0  0
    0.3559  -54.4376  -25.6452 C   0  0  0  0  0  0  0  0  0  0  0  0
   -0.0921  -53.7268  -26.8440 C   0  0  0  0  0  0  0  0  0  0  0  0
    0.6740  -53.8593  -27.9921 C   0  0  0  0  0  0  0  0  0  0  0  0
    0.3292  -53.2231  -29.1694 C   0  0  0  0  0  0  0  0  0  0  0  0
   -0.7893  -52.4342  -29.2436 C   0  0  0  0  0  0  0  0  0  0  0  0
   -1.5606  -52.2919  -28.1148 C   0  0  0  0  0  0  0  0  0  0  0  0
   -1.2108  -52.9337  -26.9306 C   0  0  0  0  0  0  0  0  0  0  0  0
    1.0984  -50.6994  -23.3049 C   0  0  0  0  0  0  0  0  0  0  0  0
    2.2995  -50.2319  -24.0575 C   0  0  0  0  0  0  0  0  0  0  0  0
    3.6175  -50.6962  -23.4566 C   0  0  0  0  0  0  0  0  0  0  0  0
    4.4297  -49.5520  -22.9575 C   0  0  0  0  0  0  0  0  0  0  0  0
    4.2053  -47.0803  -23.0918 C   0  0  0  0  0  0  0  0  0  0  0  0
    5.4438  -46.9654  -23.4129 O   0  0  0  0  0  0  0  0  0  0  0  0
    3.6366  -48.3473  -22.8558 N   0  0  0  0  0  0  0  0  0  0  0  0
    2.6132  -48.4470  -22.5976 H   0  0  0  0  0  0  0  0  0  0  0  0
    2.3787  -45.6304  -23.7330 C   0  0  0  0  0  0  0  0  0  0  0  0
    3.4297  -45.8761  -22.9837 C   0  0  0  0  0  0  0  0  0  0  0  0
 36 37  2  0  0  0
 37 32  1  0  0  0
 32 33  2  0  0  0
 32 34  1  0  0  0
 34 31  1  0  0  0
 31 30  1  0  0  0
 30 29  1  0  0  0
 29 28  1  0  0  0
 28  1  1  0  0  0
  1 17  1  0  0  0
 17 18  1  0  0  0
 18 19  2  0  0  0
 18 21  1  0  0  0
 21 22  1  0  0  0
 22 23  2  0  0  0
 23 24  1  0  0  0
 24 25  2  0  0  0
 25 26  1  0  0  0
 26 27  2  0  0  0
  1  2  1  0  0  0
  2  3  2  0  0  0
  2  4  1  0  0  0
  4  5  1  0  0  0
  5  6  1  0  0  0
  6  7  1  0  0  0
  7 10  1  0  0  0
 10 11  2  0  0  0
 11 12  1  0  0  0
 12 13  2  0  0  0
 13 14  1  0  0  0
 14 15  1  0  0  0
 14 16  2  0  0  0
  7  8  1  0  0  0
  8  9  1  0  0  0
 27 22  1  0  0  0
  9  4  1  0  0  0
 16 10  1  0  0  0
 34 35  1  0  0  0
 17 20  1  0  0  0
M  END
> <minimizedAffinity>
-6.35376

> <CNNscore>
0.2218606174

> <CNNaffinity>
6.3391094208

> <CNN_VS>
1.4063987732

> <CNNaffinity_variance>
0.4728583395

$$$$
[H]C([H])=C([H])C(=O)N([H])C([H])([H])C([H])([H])C([H])([H])C([H])([H])[C@@]([H])(C(=O)N1C([H])([H])C([H])([H])N(c2c([H])c([H])c([H])c(C([H])([H])[H])c2[H])C([H])([H])C1([H])[H])N([H])C(=O)C([H])([H])c1c([H])c([H])c([H])c([H])c1[H]


 37 39  0  0  0  0  0  0  0  0999 V2000
    1.1478  -52.2862  -22.8561 C   0  0  0  0  0  0  0  0  0  0  0  0
    0.4277  -52.3633  -21.5753 C   0  0  0  0  0  0  0  0  0  0  0  0
   -0.6900  -52.9904  -21.5575 O   0  0  0  0  0  0  0  0  0  0  0  0
    0.8974  -51.7925  -20.3761 N   0  0  0  0  0  0  0  0  0  0  0  0
    2.1478  -51.0955  -20.2955 C   0  0  0  0  0  0  0  0  0  0  0  0
    2.7634  -51.3617  -18.9258 C   0  0  0  0  0  0  0  0  0  0  0  0
    1.8480  -50.8222  -17.9381 N   0  0  0  0  0  0  0  0  0  0  0  0
    0.4622  -50.6917  -18.2734 C   0  0  0  0  0  0  0  0  0  0  0  0
    0.1161  -51.8970  -19.1476 C   0  0  0  0  0  0  0  0  0  0  0  0
    2.3180  -50.4381  -16.6558 C   0  0  0  0  0  0  0  0  0  0  0  0
    3.3993  -51.1330  -16.1214 C   0  0  0  0  0  0  0  0  0  0  0  0
    3.8764  -50.7779  -14.8855 C   0  0  0  0  0  0  0  0  0  0  0  0
    3.3202  -49.7586  -14.1605 C   0  0  0  0  0  0  0  0  0  0  0  0
    2.2518  -49.0565  -14.6651 C   0  0  0  0  0  0  0  0  0  0  0  0
    1.6259  -47.9560  -13.9146 C   0  0  0  0  0  0  0  0  0  0  0  0
    1.7737  -49.4182  -15.9131 C   0  0  0  0  0  0  0  0  0  0  0  0
    0.4650  -53.1350  -23.8634 N   0  0  0  0  0  0  0  0  0  0  0  0
    1.1857  -53.7003  -24.9308 C   0  0  0  0  0  0  0  0  0  0  0  0
    2.4181  -53.4776  -25.0220 O   0  0  0  0  0  0  0  0  0  0  0  0
   -0.5349  -53.2867  -23.7469 H   0  0  0  0  0  0  0  0  0  0  0  0
    0.4897  -54.5369  -25.9139 C   0  0  0  0  0  0  0  0  0  0  0  0
   -0.0656  -53.7867  -27.0417 C   0  0  0  0  0  0  0  0  0  0  0  0
    0.6582  -53.7770  -28.2242 C   0  0  0  0  0  0  0  0  0  0  0  0
    0.2126  -53.0938  -29.3398 C   0  0  0  0  0  0  0  0  0  0  0  0
   -0.9680  -52.3978  -29.3158 C   0  0  0  0  0  0  0  0  0  0  0  0
   -1.6987  -52.3968  -28.1516 C   0  0  0  0  0  0  0  0  0  0  0  0
   -1.2473  -53.0857  -27.0298 C   0  0  0  0  0  0  0  0  0  0  0  0
    1.0867  -50.8966  -23.4778 C   0  0  0  0  0  0  0  0  0  0  0  0
    2.4238  -50.3089  -23.7848 C   0  0  0  0  0  0  0  0  0  0  0  0
    2.6467  -50.0340  -25.2642 C   0  0  0  0  0  0  0  0  0  0  0  0
    4.0933  -50.0559  -25.6175 C   0  0  0  0  0  0  0  0  0  0  0  0
    6.2222  -50.0702  -24.3349 C   0  0  0  0  0  0  0  0  0  0  0  0
    6.7426  -49.2255  -25.1508 O   0  0  0  0  0  0  0  0  0  0  0  0
    4.8992  -50.5210  -24.5109 N   0  0  0  0  0  0  0  0  0  0  0  0
    4.4637  -51.2126  -23.8357 H   0  0  0  0  0  0  0  0  0  0  0  0
    6.7302  -50.3263  -21.9841 C   0  0  0  0  0  0  0  0  0  0  0  0
    7.0356  -50.5332  -23.2452 C   0  0  0  0  0  0  0  0  0  0  0  0
 36 37  2  0  0  0
 37 32  1  0  0  0
 32 33  2  0  0  0
 32 34  1  0  0  0
 34 31  1  0  0  0
 31 30  1  0  0  0
 30 29  1  0  0  0
 29 28  1  0  0  0
 28  1  1  0  0  0
  1 17  1  0  0  0
 17 18  1  0  0  0
 18 19  2  0  0  0
 18 21  1  0  0  0
 21 22  1  0  0  0
 22 23  2  0  0  0
 23 24  1  0  0  0
 24 25  2  0  0  0
 25 26  1  0  0  0
 26 27  2  0  0  0
  1  2  1  0  0  0
  2  3  2  0  0  0
  2  4  1  0  0  0
  4  5  1  0  0  0
  5  6  1  0  0  0
  6  7  1  0  0  0
  7 10  1  0  0  0
 10 11  2  0  0  0
 11 12  1  0  0  0
 12 13  2  0  0  0
 13 14  1  0  0  0
 14 15  1  0  0  0
 14 16  2  0  0  0
  7  8  1  0  0  0
  8  9  1  0  0  0
 27 22  1  0  0  0
  9  4  1  0  0  0
 16 10  1  0  0  0
 34 35  1  0  0  0
 17 20  1  0  0  0
M  END
> <minimizedAffinity>
-6.69340

> <CNNscore>
0.2197136432

> <CNNaffinity>
6.3486709595

> <CNN_VS>
1.3948895931

> <CNNaffinity_variance>
0.1150000244

$$$$
[H]C([H])=C([H])C(=O)N([H])C([H])([H])C([H])([H])C([H])([H])C([H])([H])[C@@]([H])(C(=O)N1C([H])([H])C([H])([H])N(c2c([H])c([H])c([H])c(C([H])([H])[H])c2[H])C([H])([H])C1([H])[H])N([H])C(=O)C([H])([H])c1c([H])c([H])c([H])c([H])c1[H]


 37 39  0  0  0  0  0  0  0  0999 V2000
    4.4933  -50.3254  -22.1283 C   0  0  0  0  0  0  0  0  0  0  0  0
    4.3012  -51.4685  -23.0346 C   0  0  0  0  0  0  0  0  0  0  0  0
    5.1236  -52.4472  -22.9411 O   0  0  0  0  0  0  0  0  0  0  0  0
    3.2688  -51.5469  -23.9900 N   0  0  0  0  0  0  0  0  0  0  0  0
    2.2887  -50.5124  -24.1481 C   0  0  0  0  0  0  0  0  0  0  0  0
    0.9583  -51.1585  -24.5205 C   0  0  0  0  0  0  0  0  0  0  0  0
    1.1554  -51.8318  -25.7902 N   0  0  0  0  0  0  0  0  0  0  0  0
    2.4743  -52.2515  -26.1568 C   0  0  0  0  0  0  0  0  0  0  0  0
    3.1540  -52.7087  -24.8661 C   0  0  0  0  0  0  0  0  0  0  0  0
    0.0556  -52.0787  -26.6519 C   0  0  0  0  0  0  0  0  0  0  0  0
   -1.2264  -51.8752  -26.1491 C   0  0  0  0  0  0  0  0  0  0  0  0
   -2.3067  -52.1016  -26.9633 C   0  0  0  0  0  0  0  0  0  0  0  0
   -2.1616  -52.5224  -28.2579 C   0  0  0  0  0  0  0  0  0  0  0  0
   -0.9070  -52.7308  -28.7789 C   0  0  0  0  0  0  0  0  0  0  0  0
   -0.7110  -53.1849  -30.1651 C   0  0  0  0  0  0  0  0  0  0  0  0
    0.1805  -52.5008  -27.9535 C   0  0  0  0  0  0  0  0  0  0  0  0
    3.2611  -50.1097  -21.3305 N   0  0  0  0  0  0  0  0  0  0  0  0
    2.8784  -51.0318  -20.3399 C   0  0  0  0  0  0  0  0  0  0  0  0
    3.5940  -52.0437  -20.1376 O   0  0  0  0  0  0  0  0  0  0  0  0
    2.7140  -49.2748  -21.5310 H   0  0  0  0  0  0  0  0  0  0  0  0
    1.6569  -50.7972  -19.5630 C   0  0  0  0  0  0  0  0  0  0  0  0
    0.5419  -51.6695  -19.9359 C   0  0  0  0  0  0  0  0  0  0  0  0
   -0.0678  -52.3984  -18.9262 C   0  0  0  0  0  0  0  0  0  0  0  0
   -1.1258  -53.2488  -19.1853 C   0  0  0  0  0  0  0  0  0  0  0  0
   -1.6125  -53.4020  -20.4576 C   0  0  0  0  0  0  0  0  0  0  0  0
   -1.0200  -52.6868  -21.4708 C   0  0  0  0  0  0  0  0  0  0  0  0
    0.0454  -51.8313  -21.2069 C   0  0  0  0  0  0  0  0  0  0  0  0
    5.5501  -50.5946  -21.0646 C   0  0  0  0  0  0  0  0  0  0  0  0
    6.7967  -49.7906  -21.2294 C   0  0  0  0  0  0  0  0  0  0  0  0
    7.2945  -49.1610  -19.9373 C   0  0  0  0  0  0  0  0  0  0  0  0
    6.6081  -47.8704  -19.6523 C   0  0  0  0  0  0  0  0  0  0  0  0
    4.3981  -47.8738  -18.5151 C   0  0  0  0  0  0  0  0  0  0  0  0
    3.7962  -47.7315  -19.6410 O   0  0  0  0  0  0  0  0  0  0  0  0
    5.8032  -47.9548  -18.4542 N   0  0  0  0  0  0  0  0  0  0  0  0
    6.3033  -48.0794  -17.5278 H   0  0  0  0  0  0  0  0  0  0  0  0
    3.3526  -46.9089  -16.5591 C   0  0  0  0  0  0  0  0  0  0  0  0
    3.5889  -47.9461  -17.3305 C   0  0  0  0  0  0  0  0  0  0  0  0
 36 37  2  0  0  0
 37 32  1  0  0  0
 32 33  2  0  0  0
 32 34  1  0  0  0
 34 31  1  0  0  0
 31 30  1  0  0  0
 30 29  1  0  0  0
 29 28  1  0  0  0
 28  1  1  0  0  0
  1 17  1  0  0  0
 17 18  1  0  0  0
 18 19  2  0  0  0
 18 21  1  0  0  0
 21 22  1  0  0  0
 22 23  2  0  0  0
 23 24  1  0  0  0
 24 25  2  0  0  0
 25 26  1  0  0  0
 26 27  2  0  0  0
  1  2  1  0  0  0
  2  3  2  0  0  0
  2  4  1  0  0  0
  4  5  1  0  0  0
  5  6  1  0  0  0
  6  7  1  0  0  0
  7 10  1  0  0  0
 10 11  2  0  0  0
 11 12  1  0  0  0
 12 13  2  0  0  0
 13 14  1  0  0  0
 14 15  1  0  0  0
 14 16  2  0  0  0
  7  8  1  0  0  0
  8  9  1  0  0  0
 27 22  1  0  0  0
  9  4  1  0  0  0
 16 10  1  0  0  0
 34 35  1  0  0  0
 17 20  1  0  0  0
M  END
> <minimizedAffinity>
-7.07666

> <CNNscore>
0.1697904766

> <CNNaffinity>
6.4148430824

> <CNN_VS>
1.0891792774

> <CNNaffinity_variance>
0.0623399913

$$$$
[H]C([H])=C([H])C(=O)N([H])C([H])([H])C([H])([H])C([H])([H])C([H])([H])[C@@]([H])(C(=O)N1C([H])([H])C([H])([H])N(c2c([H])c([H])c([H])c(C([H])([H])[H])c2[H])C([H])([H])C1([H])[H])N([H])C(=O)C([H])([H])c1c([H])c([H])c([H])c([H])c1[H]


 37 39  0  0  0  0  0  0  0  0999 V2000
    3.7614  -49.9571  -21.3733 C   0  0  0  0  0  0  0  0  0  0  0  0
    4.1807  -50.7205  -22.5593 C   0  0  0  0  0  0  0  0  0  0  0  0
    5.3845  -51.1595  -22.5898 O   0  0  0  0  0  0  0  0  0  0  0  0
    3.3369  -50.9956  -23.6533 N   0  0  0  0  0  0  0  0  0  0  0  0
    1.9692  -50.5671  -23.6951 C   0  0  0  0  0  0  0  0  0  0  0  0
    1.1513  -51.6278  -24.4243 C   0  0  0  0  0  0  0  0  0  0  0  0
    1.6712  -51.7080  -25.7762 N   0  0  0  0  0  0  0  0  0  0  0  0
    3.0238  -51.3100  -26.0252 C   0  0  0  0  0  0  0  0  0  0  0  0
    3.8320  -51.7461  -24.8031 C   0  0  0  0  0  0  0  0  0  0  0  0
    0.8538  -52.1826  -26.8343 C   0  0  0  0  0  0  0  0  0  0  0  0
    1.4783  -52.7918  -27.9191 C   0  0  0  0  0  0  0  0  0  0  0  0
    0.7104  -53.2641  -28.9528 C   0  0  0  0  0  0  0  0  0  0  0  0
   -0.6541  -53.1541  -28.9497 C   0  0  0  0  0  0  0  0  0  0  0  0
   -1.2954  -52.5570  -27.8909 C   0  0  0  0  0  0  0  0  0  0  0  0
   -2.7602  -52.4187  -27.8526 C   0  0  0  0  0  0  0  0  0  0  0  0
   -0.5164  -52.0820  -26.8496 C   0  0  0  0  0  0  0  0  0  0  0  0
    2.7068  -50.7058  -20.6463 N   0  0  0  0  0  0  0  0  0  0  0  0
    1.5169  -50.0675  -20.2529 C   0  0  0  0  0  0  0  0  0  0  0  0
    1.3565  -48.8521  -20.5249 O   0  0  0  0  0  0  0  0  0  0  0  0
    2.8827  -51.6889  -20.4487 H   0  0  0  0  0  0  0  0  0  0  0  0
    0.4881  -50.8281  -19.5360 C   0  0  0  0  0  0  0  0  0  0  0  0
    0.1140  -52.0818  -20.1927 C   0  0  0  0  0  0  0  0  0  0  0  0
   -0.7368  -52.0051  -21.2847 C   0  0  0  0  0  0  0  0  0  0  0  0
   -1.1449  -53.1366  -21.9650 C   0  0  0  0  0  0  0  0  0  0  0  0
   -0.7198  -54.3820  -21.5815 C   0  0  0  0  0  0  0  0  0  0  0  0
    0.1243  -54.4767  -20.5009 C   0  0  0  0  0  0  0  0  0  0  0  0
    0.5335  -53.3354  -19.8177 C   0  0  0  0  0  0  0  0  0  0  0  0
    4.8713  -49.8312  -20.3374 C   0  0  0  0  0  0  0  0  0  0  0  0
    5.1548  -48.4271  -19.9182 C   0  0  0  0  0  0  0  0  0  0  0  0
    5.0875  -48.2118  -18.4139 C   0  0  0  0  0  0  0  0  0  0  0  0
    3.7458  -48.5565  -17.8669 C   0  0  0  0  0  0  0  0  0  0  0  0
    3.7192  -50.7193  -16.6424 C   0  0  0  0  0  0  0  0  0  0  0  0
    3.5024  -51.3582  -17.7355 O   0  0  0  0  0  0  0  0  0  0  0  0
    3.8556  -49.3172  -16.6421 N   0  0  0  0  0  0  0  0  0  0  0  0
    4.0417  -48.7868  -15.7433 H   0  0  0  0  0  0  0  0  0  0  0  0
    2.8796  -51.4889  -14.5087 C   0  0  0  0  0  0  0  0  0  0  0  0
    3.8160  -51.4843  -15.4305 C   0  0  0  0  0  0  0  0  0  0  0  0
 36 37  2  0  0  0
 37 32  1  0  0  0
 32 33  2  0  0  0
 32 34  1  0  0  0
 34 31  1  0  0  0
 31 30  1  0  0  0
 30 29  1  0  0  0
 29 28  1  0  0  0
 28  1  1  0  0  0
  1 17  1  0  0  0
 17 18  1  0  0  0
 18 19  2  0  0  0
 18 21  1  0  0  0
 21 22  1  0  0  0
 22 23  2  0  0  0
 23 24  1  0  0  0
 24 25  2  0  0  0
 25 26  1  0  0  0
 26 27  2  0  0  0
  1  2  1  0  0  0
  2  3  2  0  0  0
  2  4  1  0  0  0
  4  5  1  0  0  0
  5  6  1  0  0  0
  6  7  1  0  0  0
  7 10  1  0  0  0
 10 11  2  0  0  0
 11 12  1  0  0  0
 12 13  2  0  0  0
 13 14  1  0  0  0
 14 15  1  0  0  0
 14 16  2  0  0  0
  7  8  1  0  0  0
  8  9  1  0  0  0
 27 22  1  0  0  0
  9  4  1  0  0  0
 16 10  1  0  0  0
 34 35  1  0  0  0
 17 20  1  0  0  0
M  END
> <minimizedAffinity>
-7.68438

> <CNNscore>
0.1656381488

> <CNNaffinity>
6.2891569138

> <CNN_VS>
1.0417243242

> <CNNaffinity_variance>
0.2525064349

$$$$
[H]c1nc([H])c(N([H])c2c([H])c(-c3c([H])c([H])c4c([H])c(C#N)c([H])nn34)nc([H])c2C(=O)N([H])[C@]2([H])C([H])([H])C([H])([H])[C@@]([H])(N([H])C(=O)C3([H])C([H])([H])C3([H])[H])C([H])([H])C2([H])[H])c([H])c1[H]


 42 47  0  0  0  0  0  0  0  0999 V2000
    0.9449  -50.9558  -17.3808 C   0  0  0  0  0  0  0  0  0  0  0  0
    0.2835  -51.1704  -18.5530 C   0  0  0  0  0  0  0  0  0  0  0  0
    0.7664  -50.9214  -19.8347 C   0  0  0  0  0  0  0  0  0  0  0  0
    2.0619  -50.3997  -19.9103 C   0  0  0  0  0  0  0  0  0  0  0  0
    2.7534  -50.1716  -18.7114 C   0  0  0  0  0  0  0  0  0  0  0  0
    2.2069  -50.4422  -17.5233 N   0  0  0  0  0  0  0  0  0  0  0  0
   -3.1994  -51.7353  -14.3289 C   0  0  0  0  0  0  0  0  0  0  0  0
   -3.1361  -51.5066  -15.6789 C   0  0  0  0  0  0  0  0  0  0  0  0
   -1.9397  -51.3373  -16.2452 N   0  0  0  0  0  0  0  0  0  0  0  0
   -0.7956  -51.3765  -15.5816 N   0  0  0  0  0  0  0  0  0  0  0  0
    0.4408  -51.2202  -16.0399 C   0  0  0  0  0  0  0  0  0  0  0  0
    1.2774  -51.3527  -14.9237 C   0  0  0  0  0  0  0  0  0  0  0  0
    0.4973  -51.5877  -13.8192 C   0  0  0  0  0  0  0  0  0  0  0  0
   -0.8259  -51.5997  -14.2582 C   0  0  0  0  0  0  0  0  0  0  0  0
   -2.0247  -51.7826  -13.6101 C   0  0  0  0  0  0  0  0  0  0  0  0
   -5.5111  -52.0625  -13.2090 N   0  0  0  0  0  0  0  0  0  0  0  0
   -4.4756  -51.9131  -13.7076 C   0  0  0  0  0  0  0  0  0  0  0  0
    2.7254  -50.1830  -21.1691 C   0  0  0  0  0  0  0  0  0  0  0  0
    2.0744  -49.6699  -22.1443 O   0  0  0  0  0  0  0  0  0  0  0  0
    4.0753  -50.5021  -21.4080 N   0  0  0  0  0  0  0  0  0  0  0  0
    4.6484  -50.9111  -20.6479 H   0  0  0  0  0  0  0  0  0  0  0  0
    4.6259  -50.2379  -22.7287 C   0  0  0  0  0  0  0  0  0  0  0  0
    5.2855  -48.8577  -22.6477 C   0  0  0  0  0  0  0  0  0  0  0  0
    6.0618  -48.6107  -23.9362 C   0  0  0  0  0  0  0  0  0  0  0  0
    7.3013  -49.5125  -23.8383 C   0  0  0  0  0  0  0  0  0  0  0  0
    7.0277  -50.7223  -23.0140 C   0  0  0  0  0  0  0  0  0  0  0  0
    5.5955  -51.2401  -23.2286 C   0  0  0  0  0  0  0  0  0  0  0  0
    7.6464  -49.8962  -25.1993 N   0  0  0  0  0  0  0  0  0  0  0  0
    8.7792  -49.3267  -25.8167 C   0  0  0  0  0  0  0  0  0  0  0  0
    9.4891  -48.4770  -25.1854 O   0  0  0  0  0  0  0  0  0  0  0  0
    7.0720  -50.5837  -25.7157 H   0  0  0  0  0  0  0  0  0  0  0  0
    9.1571  -49.7015  -27.1913 C   0  0  0  0  0  0  0  0  0  0  0  0
   10.0159  -48.8250  -27.9898 C   0  0  0  0  0  0  0  0  0  0  0  0
    8.5449  -48.7463  -28.2354 C   0  0  0  0  0  0  0  0  0  0  0  0
   -0.0735  -51.0731  -20.9387 N   0  0  0  0  0  0  0  0  0  0  0  0
   -0.5332  -50.2470  -21.3789 H   0  0  0  0  0  0  0  0  0  0  0  0
   -0.4128  -52.3180  -21.5068 C   0  0  0  0  0  0  0  0  0  0  0  0
   -0.0364  -52.7298  -22.7920 C   0  0  0  0  0  0  0  0  0  0  0  0
   -0.3981  -53.9539  -23.2926 C   0  0  0  0  0  0  0  0  0  0  0  0
   -1.1504  -54.8005  -22.5135 C   0  0  0  0  0  0  0  0  0  0  0  0
   -1.5296  -54.4371  -21.2765 N   0  0  0  0  0  0  0  0  0  0  0  0
   -1.1749  -53.2460  -20.7936 C   0  0  0  0  0  0  0  0  0  0  0  0
 16 17  3  0  0  0
 17  7  1  0  0  0
  7  8  1  0  0  0
  8  9  2  0  0  0
  9 10  1  0  0  0
 10 11  1  0  0  0
 11  1  1  0  0  0
  1  2  2  0  0  0
  2  3  1  0  0  0
  3 35  1  0  0  0
 35 37  1  0  0  0
 37 38  2  0  0  0
 38 39  1  0  0  0
 39 40  2  0  0  0
 40 41  1  0  0  0
 41 42  2  0  0  0
  3  4  2  0  0  0
  4 18  1  0  0  0
 18 19  2  0  0  0
 18 20  1  0  0  0
 20 22  1  0  0  0
 22 23  1  0  0  0
 23 24  1  0  0  0
 24 25  1  0  0  0
 25 28  1  0  0  0
 28 29  1  0  0  0
 29 30  2  0  0  0
 29 32  1  0  0  0
 32 33  1  0  0  0
 33 34  1  0  0  0
 25 26  1  0  0  0
 26 27  1  0  0  0
  4  5  1  0  0  0
  5  6  2  0  0  0
 11 12  2  0  0  0
 12 13  1  0  0  0
 13 14  2  0  0  0
 14 15  1  0  0  0
 15  7  2  0  0  0
 14 10  1  0  0  0
  6  1  1  0  0  0
 42 37  1  0  0  0
 27 22  1  0  0  0
 34 32  1  0  0  0
 35 36  1  0  0  0
 20 21  1  0  0  0
 28 31  1  0  0  0
M  END
> <minimizedAffinity>
-7.64101

> <CNNscore>
0.4145345390

> <CNNaffinity>
7.1464967728

> <CNN_VS>
2.9624698162

> <CNNaffinity_variance>
0.2768420279

$$$$
[H]c1nc([H])c(N([H])c2c([H])c(-c3c([H])c([H])c4c([H])c(C#N)c([H])nn34)nc([H])c2C(=O)N([H])[C@]2([H])C([H])([H])C([H])([H])[C@@]([H])(N([H])C(=O)C3([H])C([H])([H])C3([H])[H])C([H])([H])C2([H])[H])c([H])c1[H]


 42 47  0  0  0  0  0  0  0  0999 V2000
    2.8857  -49.3819  -23.0762 C   0  0  0  0  0  0  0  0  0  0  0  0
    3.8267  -48.4952  -22.6452 C   0  0  0  0  0  0  0  0  0  0  0  0
    4.8455  -47.9317  -23.4082 C   0  0  0  0  0  0  0  0  0  0  0  0
    4.8945  -48.3240  -24.7498 C   0  0  0  0  0  0  0  0  0  0  0  0
    3.9335  -49.2380  -25.2064 C   0  0  0  0  0  0  0  0  0  0  0  0
    2.9898  -49.7271  -24.3978 N   0  0  0  0  0  0  0  0  0  0  0  0
   -0.4460  -53.3296  -22.4339 C   0  0  0  0  0  0  0  0  0  0  0  0
    0.5023  -53.1324  -23.4038 C   0  0  0  0  0  0  0  0  0  0  0  0
    1.2492  -52.0277  -23.3552 N   0  0  0  0  0  0  0  0  0  0  0  0
    1.1341  -51.0981  -22.4205 N   0  0  0  0  0  0  0  0  0  0  0  0
    1.8172  -49.9685  -22.2784 C   0  0  0  0  0  0  0  0  0  0  0  0
    1.2981  -49.3544  -21.1309 C   0  0  0  0  0  0  0  0  0  0  0  0
    0.3061  -50.1532  -20.6195 C   0  0  0  0  0  0  0  0  0  0  0  0
    0.2145  -51.2643  -21.4567 C   0  0  0  0  0  0  0  0  0  0  0  0
   -0.5895  -52.3796  -21.4462 C   0  0  0  0  0  0  0  0  0  0  0  0
   -1.9164  -55.4599  -22.5045 N   0  0  0  0  0  0  0  0  0  0  0  0
   -1.2575  -54.5068  -22.4768 C   0  0  0  0  0  0  0  0  0  0  0  0
    5.8327  -47.7513  -25.6790 C   0  0  0  0  0  0  0  0  0  0  0  0
    6.1485  -46.5153  -25.5742 O   0  0  0  0  0  0  0  0  0  0  0  0
    6.4446  -48.4743  -26.7201 N   0  0  0  0  0  0  0  0  0  0  0  0
    6.2295  -49.4805  -26.8417 H   0  0  0  0  0  0  0  0  0  0  0  0
    7.3728  -47.7755  -27.5959 C   0  0  0  0  0  0  0  0  0  0  0  0
    8.5076  -48.7618  -27.8892 C   0  0  0  0  0  0  0  0  0  0  0  0
    9.4064  -48.1664  -28.9669 C   0  0  0  0  0  0  0  0  0  0  0  0
    8.6016  -48.2800  -30.2701 C   0  0  0  0  0  0  0  0  0  0  0  0
    7.1363  -48.2355  -30.0078 C   0  0  0  0  0  0  0  0  0  0  0  0
    6.7965  -47.2672  -28.8624 C   0  0  0  0  0  0  0  0  0  0  0  0
    8.9994  -47.1561  -31.1052 N   0  0  0  0  0  0  0  0  0  0  0  0
    8.9902  -47.2946  -32.5086 C   0  0  0  0  0  0  0  0  0  0  0  0
    8.6415  -48.4006  -33.0372 O   0  0  0  0  0  0  0  0  0  0  0  0
    9.2849  -46.2576  -30.6803 H   0  0  0  0  0  0  0  0  0  0  0  0
    9.3811  -46.1715  -33.3797 C   0  0  0  0  0  0  0  0  0  0  0  0
    9.3141  -44.7938  -32.8889 C   0  0  0  0  0  0  0  0  0  0  0  0
    8.1785  -45.2732  -33.7321 C   0  0  0  0  0  0  0  0  0  0  0  0
    5.8142  -47.1332  -22.7985 N   0  0  0  0  0  0  0  0  0  0  0  0
    6.8160  -47.4225  -22.7864 H   0  0  0  0  0  0  0  0  0  0  0  0
    5.5316  -45.9320  -22.1167 C   0  0  0  0  0  0  0  0  0  0  0  0
    6.3174  -45.4054  -21.0831 C   0  0  0  0  0  0  0  0  0  0  0  0
    5.9910  -44.2316  -20.4546 C   0  0  0  0  0  0  0  0  0  0  0  0
    4.8624  -43.5523  -20.8480 C   0  0  0  0  0  0  0  0  0  0  0  0
    4.0854  -44.0293  -21.8353 N   0  0  0  0  0  0  0  0  0  0  0  0
    4.4072  -45.1710  -22.4442 C   0  0  0  0  0  0  0  0  0  0  0  0
 16 17  3  0  0  0
 17  7  1  0  0  0
  7  8  1  0  0  0
  8  9  2  0  0  0
  9 10  1  0  0  0
 10 11  1  0  0  0
 11  1  1  0  0  0
  1  2  2  0  0  0
  2  3  1  0  0  0
  3 35  1  0  0  0
 35 37  1  0  0  0
 37 38  2  0  0  0
 38 39  1  0  0  0
 39 40  2  0  0  0
 40 41  1  0  0  0
 41 42  2  0  0  0
  3  4  2  0  0  0
  4 18  1  0  0  0
 18 19  2  0  0  0
 18 20  1  0  0  0
 20 22  1  0  0  0
 22 23  1  0  0  0
 23 24  1  0  0  0
 24 25  1  0  0  0
 25 28  1  0  0  0
 28 29  1  0  0  0
 29 30  2  0  0  0
 29 32  1  0  0  0
 32 33  1  0  0  0
 33 34  1  0  0  0
 25 26  1  0  0  0
 26 27  1  0  0  0
  4  5  1  0  0  0
  5  6  2  0  0  0
 11 12  2  0  0  0
 12 13  1  0  0  0
 13 14  2  0  0  0
 14 15  1  0  0  0
 15  7  2  0  0  0
 14 10  1  0  0  0
  6  1  1  0  0  0
 42 37  1  0  0  0
 27 22  1  0  0  0
 34 32  1  0  0  0
 35 36  1  0  0  0
 20 21  1  0  0  0
 28 31  1  0  0  0
M  END
> <minimizedAffinity>
-6.32189

> <CNNscore>
0.4024224579

> <CNNaffinity>
6.7102937698

> <CNN_VS>
2.7003729343

> <CNNaffinity_variance>
0.9591171145

$$$$
[H]c1nc([H])c(N([H])c2c([H])c(-c3c([H])c([H])c4c([H])c(C#N)c([H])nn34)nc([H])c2C(=O)N([H])[C@]2([H])C([H])([H])C([H])([H])[C@@]([H])(N([H])C(=O)C3([H])C([H])([H])C3([H])[H])C([H])([H])C2([H])[H])c([H])c1[H]


 42 47  0  0  0  0  0  0  0  0999 V2000
    3.0372  -49.2200  -23.3967 C   0  0  0  0  0  0  0  0  0  0  0  0
    4.3731  -48.9790  -23.5189 C   0  0  0  0  0  0  0  0  0  0  0  0
    5.0962  -47.9759  -22.8796 C   0  0  0  0  0  0  0  0  0  0  0  0
    4.3646  -47.1406  -22.0292 C   0  0  0  0  0  0  0  0  0  0  0  0
    2.9882  -47.3758  -21.8957 C   0  0  0  0  0  0  0  0  0  0  0  0
    2.3784  -48.3664  -22.5517 N   0  0  0  0  0  0  0  0  0  0  0  0
   -0.2086  -53.2614  -22.9195 C   0  0  0  0  0  0  0  0  0  0  0  0
    0.3165  -52.4408  -21.9552 C   0  0  0  0  0  0  0  0  0  0  0  0
    1.1357  -51.4558  -22.3282 N   0  0  0  0  0  0  0  0  0  0  0  0
    1.4790  -51.2151  -23.5833 N   0  0  0  0  0  0  0  0  0  0  0  0
    2.2815  -50.2722  -24.0628 C   0  0  0  0  0  0  0  0  0  0  0  0
    2.3033  -50.4641  -25.4507 C   0  0  0  0  0  0  0  0  0  0  0  0
    1.4988  -51.5334  -25.7559 C   0  0  0  0  0  0  0  0  0  0  0  0
    0.9796  -52.0017  -24.5497 C   0  0  0  0  0  0  0  0  0  0  0  0
    0.1295  -53.0358  -24.2361 C   0  0  0  0  0  0  0  0  0  0  0  0
   -1.7888  -55.1913  -22.2238 N   0  0  0  0  0  0  0  0  0  0  0  0
   -1.0840  -54.3249  -22.5334 C   0  0  0  0  0  0  0  0  0  0  0  0
    4.9954  -46.1231  -21.2303 C   0  0  0  0  0  0  0  0  0  0  0  0
    5.5316  -45.1130  -21.8052 O   0  0  0  0  0  0  0  0  0  0  0  0
    5.0636  -46.1609  -19.8249 N   0  0  0  0  0  0  0  0  0  0  0  0
    4.6363  -46.9528  -19.3114 H   0  0  0  0  0  0  0  0  0  0  0  0
    5.7354  -45.0702  -19.1348 C   0  0  0  0  0  0  0  0  0  0  0  0
    4.6709  -44.3972  -18.2626 C   0  0  0  0  0  0  0  0  0  0  0  0
    5.3538  -43.3796  -17.3560 C   0  0  0  0  0  0  0  0  0  0  0  0
    6.0884  -44.2140  -16.2962 C   0  0  0  0  0  0  0  0  0  0  0  0
    6.4822  -45.5464  -16.8325 C   0  0  0  0  0  0  0  0  0  0  0  0
    6.9023  -45.4592  -18.3094 C   0  0  0  0  0  0  0  0  0  0  0  0
    7.2697  -43.4548  -15.9129 N   0  0  0  0  0  0  0  0  0  0  0  0
    7.4568  -43.0937  -14.5626 C   0  0  0  0  0  0  0  0  0  0  0  0
    6.5910  -43.4264  -13.6884 O   0  0  0  0  0  0  0  0  0  0  0  0
    7.9736  -43.1812  -16.6193 H   0  0  0  0  0  0  0  0  0  0  0  0
    8.6468  -42.3312  -14.1439 C   0  0  0  0  0  0  0  0  0  0  0  0
    9.6886  -41.9900  -15.1143 C   0  0  0  0  0  0  0  0  0  0  0  0
    9.9329  -43.1762  -14.2404 C   0  0  0  0  0  0  0  0  0  0  0  0
    6.4390  -47.7714  -23.1996 N   0  0  0  0  0  0  0  0  0  0  0  0
    6.7181  -47.4327  -24.1456 H   0  0  0  0  0  0  0  0  0  0  0  0
    7.5096  -48.0478  -22.3248 C   0  0  0  0  0  0  0  0  0  0  0  0
    8.7812  -47.4677  -22.4228 C   0  0  0  0  0  0  0  0  0  0  0  0
    9.7855  -47.7772  -21.5425 C   0  0  0  0  0  0  0  0  0  0  0  0
    9.5395  -48.6811  -20.5363 C   0  0  0  0  0  0  0  0  0  0  0  0
    8.3316  -49.2572  -20.4136 N   0  0  0  0  0  0  0  0  0  0  0  0
    7.3576  -48.9526  -21.2717 C   0  0  0  0  0  0  0  0  0  0  0  0
 16 17  3  0  0  0
 17  7  1  0  0  0
  7  8  1  0  0  0
  8  9  2  0  0  0
  9 10  1  0  0  0
 10 11  1  0  0  0
 11  1  1  0  0  0
  1  2  2  0  0  0
  2  3  1  0  0  0
  3 35  1  0  0  0
 35 37  1  0  0  0
 37 38  2  0  0  0
 38 39  1  0  0  0
 39 40  2  0  0  0
 40 41  1  0  0  0
 41 42  2  0  0  0
  3  4  2  0  0  0
  4 18  1  0  0  0
 18 19  2  0  0  0
 18 20  1  0  0  0
 20 22  1  0  0  0
 22 23  1  0  0  0
 23 24  1  0  0  0
 24 25  1  0  0  0
 25 28  1  0  0  0
 28 29  1  0  0  0
 29 30  2  0  0  0
 29 32  1  0  0  0
 32 33  1  0  0  0
 33 34  1  0  0  0
 25 26  1  0  0  0
 26 27  1  0  0  0
  4  5  1  0  0  0
  5  6  2  0  0  0
 11 12  2  0  0  0
 12 13  1  0  0  0
 13 14  2  0  0  0
 14 15  1  0  0  0
 15  7  2  0  0  0
 14 10  1  0  0  0
  6  1  1  0  0  0
 42 37  1  0  0  0
 27 22  1  0  0  0
 34 32  1  0  0  0
 35 36  1  0  0  0
 20 21  1  0  0  0
 28 31  1  0  0  0
M  END
> <minimizedAffinity>
-4.98702

> <CNNscore>
0.3741418123

> <CNNaffinity>
6.6206045151

> <CNN_VS>
2.4770450592

> <CNNaffinity_variance>
1.4081499577

$$$$
[H]c1nc([H])c(N([H])c2c([H])c(-c3c([H])c([H])c4c([H])c(C#N)c([H])nn34)nc([H])c2C(=O)N([H])[C@]2([H])C([H])([H])C([H])([H])[C@@]([H])(N([H])C(=O)C3([H])C([H])([H])C3([H])[H])C([H])([H])C2([H])[H])c([H])c1[H]


 42 47  0  0  0  0  0  0  0  0999 V2000
    0.7747  -51.9980  -22.8228 C   0  0  0  0  0  0  0  0  0  0  0  0
    0.7646  -52.5729  -24.0585 C   0  0  0  0  0  0  0  0  0  0  0  0
    1.3469  -52.0621  -25.2151 C   0  0  0  0  0  0  0  0  0  0  0  0
    2.0054  -50.8357  -25.0790 C   0  0  0  0  0  0  0  0  0  0  0  0
    2.0217  -50.2315  -23.8132 C   0  0  0  0  0  0  0  0  0  0  0  0
    1.4333  -50.7985  -22.7570 N   0  0  0  0  0  0  0  0  0  0  0  0
   -0.0833  -51.4191  -17.7213 C   0  0  0  0  0  0  0  0  0  0  0  0
    0.5941  -50.6072  -18.5935 C   0  0  0  0  0  0  0  0  0  0  0  0
    0.6784  -50.9711  -19.8745 N   0  0  0  0  0  0  0  0  0  0  0  0
    0.1441  -52.0777  -20.3653 N   0  0  0  0  0  0  0  0  0  0  0  0
    0.1686  -52.5347  -21.6118 C   0  0  0  0  0  0  0  0  0  0  0  0
   -0.5427  -53.7416  -21.5861 C   0  0  0  0  0  0  0  0  0  0  0  0
   -0.9745  -53.9664  -20.3029 C   0  0  0  0  0  0  0  0  0  0  0  0
   -0.5264  -52.8922  -19.5352 C   0  0  0  0  0  0  0  0  0  0  0  0
   -0.6517  -52.5785  -18.2024 C   0  0  0  0  0  0  0  0  0  0  0  0
   -0.2483  -50.7459  -15.2264 N   0  0  0  0  0  0  0  0  0  0  0  0
   -0.1768  -51.0442  -16.3440 C   0  0  0  0  0  0  0  0  0  0  0  0
    2.7337  -50.2355  -26.1657 C   0  0  0  0  0  0  0  0  0  0  0  0
    3.0115  -50.9355  -27.2006 O   0  0  0  0  0  0  0  0  0  0  0  0
    3.1710  -48.8976  -26.1710 N   0  0  0  0  0  0  0  0  0  0  0  0
    2.9631  -48.2865  -25.3606 H   0  0  0  0  0  0  0  0  0  0  0  0
    3.9039  -48.4134  -27.3309 C   0  0  0  0  0  0  0  0  0  0  0  0
    3.2381  -47.0946  -27.7363 C   0  0  0  0  0  0  0  0  0  0  0  0
    4.0861  -46.4303  -28.8149 C   0  0  0  0  0  0  0  0  0  0  0  0
    5.3253  -45.8969  -28.0807 C   0  0  0  0  0  0  0  0  0  0  0  0
    5.6414  -46.7211  -26.8813 C   0  0  0  0  0  0  0  0  0  0  0  0
    5.3576  -48.2121  -27.1296 C   0  0  0  0  0  0  0  0  0  0  0  0
    6.4264  -45.9458  -29.0315 N   0  0  0  0  0  0  0  0  0  0  0  0
    6.9783  -44.7432  -29.5193 C   0  0  0  0  0  0  0  0  0  0  0  0
    6.5080  -43.6235  -29.1324 O   0  0  0  0  0  0  0  0  0  0  0  0
    6.8095  -46.8521  -29.3494 H   0  0  0  0  0  0  0  0  0  0  0  0
    8.0985  -44.7616  -30.4773 C   0  0  0  0  0  0  0  0  0  0  0  0
    8.9196  -45.9633  -30.6356 C   0  0  0  0  0  0  0  0  0  0  0  0
    9.4609  -44.8776  -29.7647 C   0  0  0  0  0  0  0  0  0  0  0  0
    1.1468  -52.7026  -26.4387 N   0  0  0  0  0  0  0  0  0  0  0  0
    1.9217  -53.2234  -26.9032 H   0  0  0  0  0  0  0  0  0  0  0  0
   -0.0617  -52.6594  -27.1636 C   0  0  0  0  0  0  0  0  0  0  0  0
   -0.1513  -52.7555  -28.5585 C   0  0  0  0  0  0  0  0  0  0  0  0
   -1.3568  -52.7052  -29.2094 C   0  0  0  0  0  0  0  0  0  0  0  0
   -2.5092  -52.5563  -28.4748 C   0  0  0  0  0  0  0  0  0  0  0  0
   -2.4597  -52.4601  -27.1353 N   0  0  0  0  0  0  0  0  0  0  0  0
   -1.2851  -52.5102  -26.5064 C   0  0  0  0  0  0  0  0  0  0  0  0
 16 17  3  0  0  0
 17  7  1  0  0  0
  7  8  1  0  0  0
  8  9  2  0  0  0
  9 10  1  0  0  0
 10 11  1  0  0  0
 11  1  1  0  0  0
  1  2  2  0  0  0
  2  3  1  0  0  0
  3 35  1  0  0  0
 35 37  1  0  0  0
 37 38  2  0  0  0
 38 39  1  0  0  0
 39 40  2  0  0  0
 40 41  1  0  0  0
 41 42  2  0  0  0
  3  4  2  0  0  0
  4 18  1  0  0  0
 18 19  2  0  0  0
 18 20  1  0  0  0
 20 22  1  0  0  0
 22 23  1  0  0  0
 23 24  1  0  0  0
 24 25  1  0  0  0
 25 28  1  0  0  0
 28 29  1  0  0  0
 29 30  2  0  0  0
 29 32  1  0  0  0
 32 33  1  0  0  0
 33 34  1  0  0  0
 25 26  1  0  0  0
 26 27  1  0  0  0
  4  5  1  0  0  0
  5  6  2  0  0  0
 11 12  2  0  0  0
 12 13  1  0  0  0
 13 14  2  0  0  0
 14 15  1  0  0  0
 15  7  2  0  0  0
 14 10  1  0  0  0
  6  1  1  0  0  0
 42 37  1  0  0  0
 27 22  1  0  0  0
 34 32  1  0  0  0
 35 36  1  0  0  0
 20 21  1  0  0  0
 28 31  1  0  0  0
M  END
> <minimizedAffinity>
-8.26086

> <CNNscore>
0.3282153904

> <CNNaffinity>
7.0574355125

> <CNN_VS>
2.3163590431

> <CNNaffinity_variance>
0.1360679865

$$$$
[H]c1nc([H])c(N([H])c2c([H])c(-c3c([H])c([H])c4c([H])c(C#N)c([H])nn34)nc([H])c2C(=O)N([H])[C@]2([H])C([H])([H])C([H])([H])[C@@]([H])(N([H])C(=O)C3([H])C([H])([H])C3([H])[H])C([H])([H])C2([H])[H])c([H])c1[H]


 42 47  0  0  0  0  0  0  0  0999 V2000
    1.5558  -49.6985  -20.7084 C   0  0  0  0  0  0  0  0  0  0  0  0
    0.9862  -50.9025  -20.9972 C   0  0  0  0  0  0  0  0  0  0  0  0
    0.3033  -51.7302  -20.1105 C   0  0  0  0  0  0  0  0  0  0  0  0
    0.1990  -51.2654  -18.7955 C   0  0  0  0  0  0  0  0  0  0  0  0
    0.7828  -50.0287  -18.4836 C   0  0  0  0  0  0  0  0  0  0  0  0
    1.4207  -49.3014  -19.4043 N   0  0  0  0  0  0  0  0  0  0  0  0
    3.5313  -49.0686  -25.4831 C   0  0  0  0  0  0  0  0  0  0  0  0
    2.8596  -50.1363  -24.9467 C   0  0  0  0  0  0  0  0  0  0  0  0
    2.4417  -50.0610  -23.6817 N   0  0  0  0  0  0  0  0  0  0  0  0
    2.6346  -49.0103  -22.9007 N   0  0  0  0  0  0  0  0  0  0  0  0
    2.2670  -48.8307  -21.6375 C   0  0  0  0  0  0  0  0  0  0  0  0
    2.7195  -47.5508  -21.2904 C   0  0  0  0  0  0  0  0  0  0  0  0
    3.3521  -47.0019  -22.3777 C   0  0  0  0  0  0  0  0  0  0  0  0
    3.2885  -47.9490  -23.3988 C   0  0  0  0  0  0  0  0  0  0  0  0
    3.7472  -47.9591  -24.6950 C   0  0  0  0  0  0  0  0  0  0  0  0
    4.3682  -49.1926  -27.9304 N   0  0  0  0  0  0  0  0  0  0  0  0
    3.9899  -49.1377  -26.8363 C   0  0  0  0  0  0  0  0  0  0  0  0
   -0.5599  -51.9687  -17.7950 C   0  0  0  0  0  0  0  0  0  0  0  0
   -0.4074  -53.2325  -17.6613 O   0  0  0  0  0  0  0  0  0  0  0  0
   -1.4800  -51.3477  -16.9296 N   0  0  0  0  0  0  0  0  0  0  0  0
   -1.6327  -50.3248  -16.9912 H   0  0  0  0  0  0  0  0  0  0  0  0
   -2.1884  -52.1739  -15.9638 C   0  0  0  0  0  0  0  0  0  0  0  0
   -2.8892  -51.2051  -15.0062 C   0  0  0  0  0  0  0  0  0  0  0  0
   -3.8173  -52.0024  -14.0970 C   0  0  0  0  0  0  0  0  0  0  0  0
   -5.0002  -52.4103  -14.9876 C   0  0  0  0  0  0  0  0  0  0  0  0
   -4.5858  -52.5438  -16.4118 C   0  0  0  0  0  0  0  0  0  0  0  0
   -3.1680  -53.1269  -16.5353 C   0  0  0  0  0  0  0  0  0  0  0  0
   -5.4834  -53.6864  -14.4806 N   0  0  0  0  0  0  0  0  0  0  0  0
   -6.3396  -53.7108  -13.3604 C   0  0  0  0  0  0  0  0  0  0  0  0
   -6.6799  -52.6204  -12.7949 O   0  0  0  0  0  0  0  0  0  0  0  0
   -5.2081  -54.5734  -14.9352 H   0  0  0  0  0  0  0  0  0  0  0  0
   -6.8503  -54.9875  -12.8292 C   0  0  0  0  0  0  0  0  0  0  0  0
   -6.7667  -56.2105  -13.6297 C   0  0  0  0  0  0  0  0  0  0  0  0
   -8.0746  -55.4895  -13.6208 C   0  0  0  0  0  0  0  0  0  0  0  0
   -0.1182  -52.9958  -20.5207 N   0  0  0  0  0  0  0  0  0  0  0  0
   -0.3093  -53.7480  -19.8242 H   0  0  0  0  0  0  0  0  0  0  0  0
   -0.2650  -53.3798  -21.8692 C   0  0  0  0  0  0  0  0  0  0  0  0
    0.5221  -52.8921  -22.9208 C   0  0  0  0  0  0  0  0  0  0  0  0
    0.3314  -53.3017  -24.2152 C   0  0  0  0  0  0  0  0  0  0  0  0
   -0.6586  -54.2152  -24.4898 C   0  0  0  0  0  0  0  0  0  0  0  0
   -1.4326  -54.7029  -23.5055 N   0  0  0  0  0  0  0  0  0  0  0  0
   -1.2431  -54.3022  -22.2479 C   0  0  0  0  0  0  0  0  0  0  0  0
 16 17  3  0  0  0
 17  7  1  0  0  0
  7  8  1  0  0  0
  8  9  2  0  0  0
  9 10  1  0  0  0
 10 11  1  0  0  0
 11  1  1  0  0  0
  1  2  2  0  0  0
  2  3  1  0  0  0
  3 35  1  0  0  0
 35 37  1  0  0  0
 37 38  2  0  0  0
 38 39  1  0  0  0
 39 40  2  0  0  0
 40 41  1  0  0  0
 41 42  2  0  0  0
  3  4  2  0  0  0
  4 18  1  0  0  0
 18 19  2  0  0  0
 18 20  1  0  0  0
 20 22  1  0  0  0
 22 23  1  0  0  0
 23 24  1  0  0  0
 24 25  1  0  0  0
 25 28  1  0  0  0
 28 29  1  0  0  0
 29 30  2  0  0  0
 29 32  1  0  0  0
 32 33  1  0  0  0
 33 34  1  0  0  0
 25 26  1  0  0  0
 26 27  1  0  0  0
  4  5  1  0  0  0
  5  6  2  0  0  0
 11 12  2  0  0  0
 12 13  1  0  0  0
 13 14  2  0  0  0
 14 15  1  0  0  0
 15  7  2  0  0  0
 14 10  1  0  0  0
  6  1  1  0  0  0
 42 37  1  0  0  0
 27 22  1  0  0  0
 34 32  1  0  0  0
 35 36  1  0  0  0
 20 21  1  0  0  0
 28 31  1  0  0  0
M  END
> <minimizedAffinity>
-6.94818

> <CNNscore>
0.3073048890

> <CNNaffinity>
7.2378921509

> <CNN_VS>
2.2242395878

> <CNNaffinity_variance>
0.3242245018

$$$$
[H]c1nc([H])c(N([H])c2c([H])c(-c3c([H])c([H])c4c([H])c(C#N)c([H])nn34)nc([H])c2C(=O)N([H])[C@]2([H])C([H])([H])C([H])([H])[C@@]([H])(N([H])C(=O)C3([H])C([H])([H])C3([H])[H])C([H])([H])C2([H])[H])c([H])c1[H]


 42 47  0  0  0  0  0  0  0  0999 V2000
    0.9705  -51.0307  -17.6814 C   0  0  0  0  0  0  0  0  0  0  0  0
    0.2537  -51.2277  -18.8238 C   0  0  0  0  0  0  0  0  0  0  0  0
    0.7510  -51.2306  -20.1240 C   0  0  0  0  0  0  0  0  0  0  0  0
    2.1257  -51.0087  -20.2544 C   0  0  0  0  0  0  0  0  0  0  0  0
    2.8753  -50.8022  -19.0870 C   0  0  0  0  0  0  0  0  0  0  0  0
    2.3093  -50.8169  -17.8775 N   0  0  0  0  0  0  0  0  0  0  0  0
   -3.1243  -51.7649  -14.5524 C   0  0  0  0  0  0  0  0  0  0  0  0
   -3.0304  -51.8831  -15.9148 C   0  0  0  0  0  0  0  0  0  0  0  0
   -1.8553  -51.6431  -16.4998 N   0  0  0  0  0  0  0  0  0  0  0  0
   -0.7604  -51.2945  -15.8435 N   0  0  0  0  0  0  0  0  0  0  0  0
    0.4505  -51.0316  -16.3206 C   0  0  0  0  0  0  0  0  0  0  0  0
    1.2357  -50.7131  -15.2047 C   0  0  0  0  0  0  0  0  0  0  0  0
    0.4522  -50.7988  -14.0811 C   0  0  0  0  0  0  0  0  0  0  0  0
   -0.8215  -51.1718  -14.5081 C   0  0  0  0  0  0  0  0  0  0  0  0
   -2.0010  -51.4041  -13.8407 C   0  0  0  0  0  0  0  0  0  0  0  0
   -5.3991  -52.2165  -13.4007 N   0  0  0  0  0  0  0  0  0  0  0  0
   -4.3793  -52.0139  -13.9126 C   0  0  0  0  0  0  0  0  0  0  0  0
    2.7930  -51.0791  -21.5278 C   0  0  0  0  0  0  0  0  0  0  0  0
    3.6061  -52.0397  -21.7607 O   0  0  0  0  0  0  0  0  0  0  0  0
    2.6075  -50.1426  -22.5621 N   0  0  0  0  0  0  0  0  0  0  0  0
    1.9525  -49.3514  -22.4267 H   0  0  0  0  0  0  0  0  0  0  0  0
    3.3474  -50.3245  -23.8016 C   0  0  0  0  0  0  0  0  0  0  0  0
    2.2989  -50.5524  -24.8949 C   0  0  0  0  0  0  0  0  0  0  0  0
    2.9960  -50.5419  -26.2505 C   0  0  0  0  0  0  0  0  0  0  0  0
    3.3474  -49.0695  -26.5109 C   0  0  0  0  0  0  0  0  0  0  0  0
    3.5583  -48.3289  -25.2362 C   0  0  0  0  0  0  0  0  0  0  0  0
    4.2459  -49.2088  -24.1788 C   0  0  0  0  0  0  0  0  0  0  0  0
    4.5675  -49.0660  -27.3048 N   0  0  0  0  0  0  0  0  0  0  0  0
    4.6138  -48.3286  -28.5059 C   0  0  0  0  0  0  0  0  0  0  0  0
    3.5894  -47.6765  -28.8930 O   0  0  0  0  0  0  0  0  0  0  0  0
    5.4001  -49.5953  -26.9953 H   0  0  0  0  0  0  0  0  0  0  0  0
    5.8379  -48.3006  -29.3268 C   0  0  0  0  0  0  0  0  0  0  0  0
    5.8381  -47.6461  -30.6364 C   0  0  0  0  0  0  0  0  0  0  0  0
    5.6828  -49.1313  -30.6165 C   0  0  0  0  0  0  0  0  0  0  0  0
   -0.1254  -51.3210  -21.2062 N   0  0  0  0  0  0  0  0  0  0  0  0
   -0.5995  -50.4721  -21.5833 H   0  0  0  0  0  0  0  0  0  0  0  0
   -0.4836  -52.5322  -21.8325 C   0  0  0  0  0  0  0  0  0  0  0  0
   -0.1340  -52.8779  -23.1445 C   0  0  0  0  0  0  0  0  0  0  0  0
   -0.5132  -54.0717  -23.7018 C   0  0  0  0  0  0  0  0  0  0  0  0
   -1.2566  -54.9539  -22.9541 C   0  0  0  0  0  0  0  0  0  0  0  0
   -1.6102  -54.6540  -21.6928 N   0  0  0  0  0  0  0  0  0  0  0  0
   -1.2386  -53.4921  -21.1547 C   0  0  0  0  0  0  0  0  0  0  0  0
 16 17  3  0  0  0
 17  7  1  0  0  0
  7  8  1  0  0  0
  8  9  2  0  0  0
  9 10  1  0  0  0
 10 11  1  0  0  0
 11  1  1  0  0  0
  1  2  2  0  0  0
  2  3  1  0  0  0
  3 35  1  0  0  0
 35 37  1  0  0  0
 37 38  2  0  0  0
 38 39  1  0  0  0
 39 40  2  0  0  0
 40 41  1  0  0  0
 41 42  2  0  0  0
  3  4  2  0  0  0
  4 18  1  0  0  0
 18 19  2  0  0  0
 18 20  1  0  0  0
 20 22  1  0  0  0
 22 23  1  0  0  0
 23 24  1  0  0  0
 24 25  1  0  0  0
 25 28  1  0  0  0
 28 29  1  0  0  0
 29 30  2  0  0  0
 29 32  1  0  0  0
 32 33  1  0  0  0
 33 34  1  0  0  0
 25 26  1  0  0  0
 26 27  1  0  0  0
  4  5  1  0  0  0
  5  6  2  0  0  0
 11 12  2  0  0  0
 12 13  1  0  0  0
 13 14  2  0  0  0
 14 15  1  0  0  0
 15  7  2  0  0  0
 14 10  1  0  0  0
  6  1  1  0  0  0
 42 37  1  0  0  0
 27 22  1  0  0  0
 34 32  1  0  0  0
 35 36  1  0  0  0
 20 21  1  0  0  0
 28 31  1  0  0  0
M  END
> <minimizedAffinity>
-7.98815

> <CNNscore>
0.2835794687

> <CNNaffinity>
7.0871248245

> <CNN_VS>
2.0097630024

> <CNNaffinity_variance>
0.1588130146

$$$$
[H]c1nc([H])c(N([H])c2c([H])c(-c3c([H])c([H])c4c([H])c(C#N)c([H])nn34)nc([H])c2C(=O)N([H])[C@]2([H])C([H])([H])C([H])([H])[C@@]([H])(N([H])C(=O)C3([H])C([H])([H])C3([H])[H])C([H])([H])C2([H])[H])c([H])c1[H]


 42 47  0  0  0  0  0  0  0  0999 V2000
    2.9640  -51.5585  -24.2789 C   0  0  0  0  0  0  0  0  0  0  0  0
    2.2253  -50.9520  -23.3074 C   0  0  0  0  0  0  0  0  0  0  0  0
    2.6890  -50.4969  -22.0762 C   0  0  0  0  0  0  0  0  0  0  0  0
    4.0520  -50.6875  -21.8268 C   0  0  0  0  0  0  0  0  0  0  0  0
    4.8239  -51.3125  -22.8172 C   0  0  0  0  0  0  0  0  0  0  0  0
    4.2897  -51.7173  -23.9723 N   0  0  0  0  0  0  0  0  0  0  0  0
   -1.1372  -52.5260  -27.3352 C   0  0  0  0  0  0  0  0  0  0  0  0
   -1.0936  -52.0246  -26.0603 C   0  0  0  0  0  0  0  0  0  0  0  0
    0.0949  -51.8599  -25.4763 N   0  0  0  0  0  0  0  0  0  0  0  0
    1.2491  -52.1518  -26.0539 N   0  0  0  0  0  0  0  0  0  0  0  0
    2.4792  -52.0311  -25.5688 C   0  0  0  0  0  0  0  0  0  0  0  0
    3.3324  -52.4810  -26.5851 C   0  0  0  0  0  0  0  0  0  0  0  0
    2.5681  -52.8610  -27.6600 C   0  0  0  0  0  0  0  0  0  0  0  0
    1.2380  -52.6437  -27.3029 C   0  0  0  0  0  0  0  0  0  0  0  0
    0.0483  -52.8390  -27.9639 C   0  0  0  0  0  0  0  0  0  0  0  0
   -3.4343  -52.8590  -28.4830 N   0  0  0  0  0  0  0  0  0  0  0  0
   -2.4047  -52.7130  -27.9714 C   0  0  0  0  0  0  0  0  0  0  0  0
    4.6885  -50.1826  -20.6387 C   0  0  0  0  0  0  0  0  0  0  0  0
    4.3799  -50.6780  -19.4996 O   0  0  0  0  0  0  0  0  0  0  0  0
    5.6531  -49.1576  -20.6422 N   0  0  0  0  0  0  0  0  0  0  0  0
    5.9444  -48.7300  -21.5399 H   0  0  0  0  0  0  0  0  0  0  0  0
    6.2175  -48.7336  -19.3699 C   0  0  0  0  0  0  0  0  0  0  0  0
    7.7294  -48.6219  -19.5898 C   0  0  0  0  0  0  0  0  0  0  0  0
    8.3566  -47.9816  -18.3568 C   0  0  0  0  0  0  0  0  0  0  0  0
    7.9597  -46.4995  -18.4272 C   0  0  0  0  0  0  0  0  0  0  0  0
    6.6633  -46.3186  -19.1375 C   0  0  0  0  0  0  0  0  0  0  0  0
    5.6841  -47.4630  -18.8263 C   0  0  0  0  0  0  0  0  0  0  0  0
    7.8523  -46.0309  -17.0532 N   0  0  0  0  0  0  0  0  0  0  0  0
    8.9308  -45.3349  -16.4692 C   0  0  0  0  0  0  0  0  0  0  0  0
    9.9931  -45.1259  -17.1418 O   0  0  0  0  0  0  0  0  0  0  0  0
    6.9930  -46.2000  -16.5034 H   0  0  0  0  0  0  0  0  0  0  0  0
    8.8479  -44.8423  -15.0824 C   0  0  0  0  0  0  0  0  0  0  0  0
   10.0645  -44.6342  -14.2950 C   0  0  0  0  0  0  0  0  0  0  0  0
    9.3140  -45.9051  -14.0672 C   0  0  0  0  0  0  0  0  0  0  0  0
    1.7887  -50.0081  -21.1286 N   0  0  0  0  0  0  0  0  0  0  0  0
    1.6544  -48.9823  -20.9973 H   0  0  0  0  0  0  0  0  0  0  0  0
    1.0452  -50.8243  -20.2520 C   0  0  0  0  0  0  0  0  0  0  0  0
    0.7986  -50.5210  -18.9065 C   0  0  0  0  0  0  0  0  0  0  0  0
    0.0687  -51.3559  -18.1005 C   0  0  0  0  0  0  0  0  0  0  0  0
   -0.4350  -52.5224  -18.6253 C   0  0  0  0  0  0  0  0  0  0  0  0
   -0.2167  -52.8449  -19.9115 N   0  0  0  0  0  0  0  0  0  0  0  0
    0.4932  -52.0295  -20.6920 C   0  0  0  0  0  0  0  0  0  0  0  0
 16 17  3  0  0  0
 17  7  1  0  0  0
  7  8  1  0  0  0
  8  9  2  0  0  0
  9 10  1  0  0  0
 10 11  1  0  0  0
 11  1  1  0  0  0
  1  2  2  0  0  0
  2  3  1  0  0  0
  3 35  1  0  0  0
 35 37  1  0  0  0
 37 38  2  0  0  0
 38 39  1  0  0  0
 39 40  2  0  0  0
 40 41  1  0  0  0
 41 42  2  0  0  0
  3  4  2  0  0  0
  4 18  1  0  0  0
 18 19  2  0  0  0
 18 20  1  0  0  0
 20 22  1  0  0  0
 22 23  1  0  0  0
 23 24  1  0  0  0
 24 25  1  0  0  0
 25 28  1  0  0  0
 28 29  1  0  0  0
 29 30  2  0  0  0
 29 32  1  0  0  0
 32 33  1  0  0  0
 33 34  1  0  0  0
 25 26  1  0  0  0
 26 27  1  0  0  0
  4  5  1  0  0  0
  5  6  2  0  0  0
 11 12  2  0  0  0
 12 13  1  0  0  0
 13 14  2  0  0  0
 14 15  1  0  0  0
 15  7  2  0  0  0
 14 10  1  0  0  0
  6  1  1  0  0  0
 42 37  1  0  0  0
 27 22  1  0  0  0
 34 32  1  0  0  0
 35 36  1  0  0  0
 20 21  1  0  0  0
 28 31  1  0  0  0
M  END
> <minimizedAffinity>
-6.93536

> <CNNscore>
0.1652478725

> <CNNaffinity>
6.7209830284

> <CNN_VS>
1.1106281281

> <CNNaffinity_variance>
0.2807000279

$$$$
[H]c1nc([H])c(N([H])c2c([H])c(-c3c([H])c([H])c4c([H])c(C#N)c([H])nn34)nc([H])c2C(=O)N([H])[C@]2([H])C([H])([H])C([H])([H])[C@@]([H])(N([H])C(=O)C3([H])C([H])([H])C3([H])[H])C([H])([H])C2([H])[H])c([H])c1[H]


 42 47  0  0  0  0  0  0  0  0999 V2000
    2.4950  -50.6225  -24.2758 C   0  0  0  0  0  0  0  0  0  0  0  0
    1.5977  -50.6094  -23.2500 C   0  0  0  0  0  0  0  0  0  0  0  0
    1.6794  -49.8488  -22.0870 C   0  0  0  0  0  0  0  0  0  0  0  0
    2.8000  -49.0193  -21.9753 C   0  0  0  0  0  0  0  0  0  0  0  0
    3.7329  -49.0245  -23.0227 C   0  0  0  0  0  0  0  0  0  0  0  0
    3.5699  -49.7908  -24.1042 N   0  0  0  0  0  0  0  0  0  0  0  0
   -0.5438  -52.6016  -28.0101 C   0  0  0  0  0  0  0  0  0  0  0  0
   -0.8749  -51.8209  -26.9332 C   0  0  0  0  0  0  0  0  0  0  0  0
    0.0939  -51.4284  -26.1038 N   0  0  0  0  0  0  0  0  0  0  0  0
    1.3696  -51.7465  -26.2540 N   0  0  0  0  0  0  0  0  0  0  0  0
    2.4072  -51.4157  -25.4945 C   0  0  0  0  0  0  0  0  0  0  0  0
    3.5225  -52.0124  -26.0972 C   0  0  0  0  0  0  0  0  0  0  0  0
    3.1040  -52.6900  -27.2150 C   0  0  0  0  0  0  0  0  0  0  0  0
    1.7242  -52.5093  -27.3002 C   0  0  0  0  0  0  0  0  0  0  0  0
    0.7768  -52.9492  -28.1942 C   0  0  0  0  0  0  0  0  0  0  0  0
   -2.4088  -53.3778  -29.6301 N   0  0  0  0  0  0  0  0  0  0  0  0
   -1.5731  -53.0342  -28.9045 C   0  0  0  0  0  0  0  0  0  0  0  0
    2.9682  -48.1075  -20.8744 C   0  0  0  0  0  0  0  0  0  0  0  0
    2.0335  -47.2793  -20.5939 O   0  0  0  0  0  0  0  0  0  0  0  0
    4.1171  -48.0632  -20.0626 N   0  0  0  0  0  0  0  0  0  0  0  0
    4.8983  -48.7195  -20.2425 H   0  0  0  0  0  0  0  0  0  0  0  0
    4.1648  -47.0890  -18.9829 C   0  0  0  0  0  0  0  0  0  0  0  0
    4.5871  -47.8616  -17.7293 C   0  0  0  0  0  0  0  0  0  0  0  0
    4.8587  -46.8643  -16.6089 C   0  0  0  0  0  0  0  0  0  0  0  0
    6.1906  -46.1954  -16.9797 C   0  0  0  0  0  0  0  0  0  0  0  0
    6.3924  -46.1704  -18.4550 C   0  0  0  0  0  0  0  0  0  0  0  0
    5.0688  -45.9362  -19.2024 C   0  0  0  0  0  0  0  0  0  0  0  0
    6.1366  -44.8390  -16.4543 N   0  0  0  0  0  0  0  0  0  0  0  0
    6.8443  -44.5203  -15.2769 C   0  0  0  0  0  0  0  0  0  0  0  0
    7.5197  -45.4192  -14.6766 O   0  0  0  0  0  0  0  0  0  0  0  0
    5.5882  -44.1073  -16.9371 H   0  0  0  0  0  0  0  0  0  0  0  0
    6.8139  -43.1536  -14.7254 C   0  0  0  0  0  0  0  0  0  0  0  0
    6.9507  -42.9316  -13.2848 C   0  0  0  0  0  0  0  0  0  0  0  0
    5.5680  -42.9162  -13.8487 C   0  0  0  0  0  0  0  0  0  0  0  0
    0.7473  -50.0338  -21.0651 N   0  0  0  0  0  0  0  0  0  0  0  0
    0.4973  -49.2528  -20.4209 H   0  0  0  0  0  0  0  0  0  0  0  0
    0.1212  -51.2648  -20.7816 C   0  0  0  0  0  0  0  0  0  0  0  0
    0.1207  -51.8807  -19.5232 C   0  0  0  0  0  0  0  0  0  0  0  0
   -0.5049  -53.0815  -19.3076 C   0  0  0  0  0  0  0  0  0  0  0  0
   -1.1490  -53.6987  -20.3536 C   0  0  0  0  0  0  0  0  0  0  0  0
   -1.1674  -53.1364  -21.5740 N   0  0  0  0  0  0  0  0  0  0  0  0
   -0.5582  -51.9681  -21.7789 C   0  0  0  0  0  0  0  0  0  0  0  0
 16 17  3  0  0  0
 17  7  1  0  0  0
  7  8  1  0  0  0
  8  9  2  0  0  0
  9 10  1  0  0  0
 10 11  1  0  0  0
 11  1  1  0  0  0
  1  2  2  0  0  0
  2  3  1  0  0  0
  3 35  1  0  0  0
 35 37  1  0  0  0
 37 38  2  0  0  0
 38 39  1  0  0  0
 39 40  2  0  0  0
 40 41  1  0  0  0
 41 42  2  0  0  0
  3  4  2  0  0  0
  4 18  1  0  0  0
 18 19  2  0  0  0
 18 20  1  0  0  0
 20 22  1  0  0  0
 22 23  1  0  0  0
 23 24  1  0  0  0
 24 25  1  0  0  0
 25 28  1  0  0  0
 28 29  1  0  0  0
 29 30  2  0  0  0
 29 32  1  0  0  0
 32 33  1  0  0  0
 33 34  1  0  0  0
 25 26  1  0  0  0
 26 27  1  0  0  0
  4  5  1  0  0  0
  5  6  2  0  0  0
 11 12  2  0  0  0
 12 13  1  0  0  0
 13 14  2  0  0  0
 14 15  1  0  0  0
 15  7  2  0  0  0
 14 10  1  0  0  0
  6  1  1  0  0  0
 42 37  1  0  0  0
 27 22  1  0  0  0
 34 32  1  0  0  0
 35 36  1  0  0  0
 20 21  1  0  0  0
 28 31  1  0  0  0
M  END
> <minimizedAffinity>
-5.93662

> <CNNscore>
0.1639787853

> <CNNaffinity>
6.7960548401

> <CNN_VS>
1.1144088507

> <CNNaffinity_variance>
0.6039023399

$$$$
[H]c1nc([H])c(N([H])c2c([H])c(-c3c([H])c([H])c4c([H])c(C#N)c([H])nn34)nc([H])c2C(=O)N([H])[C@]2([H])C([H])([H])C([H])([H])[C@@]([H])(N([H])C(=O)C3([H])C([H])([H])C3([H])[H])C([H])([H])C2([H])[H])c([H])c1[H]


 42 47  0  0  0  0  0  0  0  0999 V2000
    0.6653  -51.6068  -20.0931 C   0  0  0  0  0  0  0  0  0  0  0  0
    0.1137  -51.6391  -21.3389 C   0  0  0  0  0  0  0  0  0  0  0  0
    0.7851  -51.4741  -22.5471 C   0  0  0  0  0  0  0  0  0  0  0  0
    2.1635  -51.2550  -22.4568 C   0  0  0  0  0  0  0  0  0  0  0  0
    2.7442  -51.2171  -21.1806 C   0  0  0  0  0  0  0  0  0  0  0  0
    2.0173  -51.3866  -20.0732 N   0  0  0  0  0  0  0  0  0  0  0  0
   -0.4621  -49.6689  -15.3952 C   0  0  0  0  0  0  0  0  0  0  0  0
    0.3049  -49.1395  -16.4003 C   0  0  0  0  0  0  0  0  0  0  0  0
    0.4463  -49.8324  -17.5318 N   0  0  0  0  0  0  0  0  0  0  0  0
   -0.1122  -51.0118  -17.7511 N   0  0  0  0  0  0  0  0  0  0  0  0
   -0.0369  -51.7835  -18.8290 C   0  0  0  0  0  0  0  0  0  0  0  0
   -0.8073  -52.9169  -18.5373 C   0  0  0  0  0  0  0  0  0  0  0  0
   -1.3246  -52.7794  -17.2735 C   0  0  0  0  0  0  0  0  0  0  0  0
   -0.8699  -51.5551  -16.7853 C   0  0  0  0  0  0  0  0  0  0  0  0
   -1.0578  -50.8955  -15.5936 C   0  0  0  0  0  0  0  0  0  0  0  0
   -0.7370  -48.3478  -13.1852 N   0  0  0  0  0  0  0  0  0  0  0  0
   -0.6179  -48.9394  -14.1746 C   0  0  0  0  0  0  0  0  0  0  0  0
    3.0000  -51.1627  -23.6244 C   0  0  0  0  0  0  0  0  0  0  0  0
    3.5604  -52.2181  -24.0830 O   0  0  0  0  0  0  0  0  0  0  0  0
    3.2494  -49.9626  -24.3164 N   0  0  0  0  0  0  0  0  0  0  0  0
    2.8115  -49.0819  -23.9908 H   0  0  0  0  0  0  0  0  0  0  0  0
    4.1196  -50.0033  -25.4817 C   0  0  0  0  0  0  0  0  0  0  0  0
    3.4470  -49.1322  -26.5472 C   0  0  0  0  0  0  0  0  0  0  0  0
    4.4082  -48.9631  -27.7183 C   0  0  0  0  0  0  0  0  0  0  0  0
    5.4889  -47.9946  -27.2153 C   0  0  0  0  0  0  0  0  0  0  0  0
    5.6676  -48.1003  -25.7406 C   0  0  0  0  0  0  0  0  0  0  0  0
    5.5120  -49.5513  -25.2552 C   0  0  0  0  0  0  0  0  0  0  0  0
    6.7221  -48.3535  -27.9003 N   0  0  0  0  0  0  0  0  0  0  0  0
    7.1878  -47.5498  -28.9613 C   0  0  0  0  0  0  0  0  0  0  0  0
    6.5263  -46.5207  -29.3188 O   0  0  0  0  0  0  0  0  0  0  0  0
    7.2608  -49.1887  -27.6147 H   0  0  0  0  0  0  0  0  0  0  0  0
    8.4370  -47.8845  -29.6688 C   0  0  0  0  0  0  0  0  0  0  0  0
    8.7216  -47.3088  -30.9845 C   0  0  0  0  0  0  0  0  0  0  0  0
    8.1696  -48.6961  -30.9523 C   0  0  0  0  0  0  0  0  0  0  0  0
    0.0663  -51.4066  -23.7414 N   0  0  0  0  0  0  0  0  0  0  0  0
   -0.5583  -50.5967  -23.9451 H   0  0  0  0  0  0  0  0  0  0  0  0
    0.0725  -52.4174  -24.7242 C   0  0  0  0  0  0  0  0  0  0  0  0
    0.4909  -52.2308  -26.0483 C   0  0  0  0  0  0  0  0  0  0  0  0
    0.4728  -53.2529  -26.9618 C   0  0  0  0  0  0  0  0  0  0  0  0
    0.0322  -54.4946  -26.5692 C   0  0  0  0  0  0  0  0  0  0  0  0
   -0.3772  -54.7085  -25.3073 N   0  0  0  0  0  0  0  0  0  0  0  0
   -0.3572  -53.7116  -24.4220 C   0  0  0  0  0  0  0  0  0  0  0  0
 16 17  3  0  0  0
 17  7  1  0  0  0
  7  8  1  0  0  0
  8  9  2  0  0  0
  9 10  1  0  0  0
 10 11  1  0  0  0
 11  1  1  0  0  0
  1  2  2  0  0  0
  2  3  1  0  0  0
  3 35  1  0  0  0
 35 37  1  0  0  0
 37 38  2  0  0  0
 38 39  1  0  0  0
 39 40  2  0  0  0
 40 41  1  0  0  0
 41 42  2  0  0  0
  3  4  2  0  0  0
  4 18  1  0  0  0
 18 19  2  0  0  0
 18 20  1  0  0  0
 20 22  1  0  0  0
 22 23  1  0  0  0
 23 24  1  0  0  0
 24 25  1  0  0  0
 25 28  1  0  0  0
 28 29  1  0  0  0
 29 30  2  0  0  0
 29 32  1  0  0  0
 32 33  1  0  0  0
 33 34  1  0  0  0
 25 26  1  0  0  0
 26 27  1  0  0  0
  4  5  1  0  0  0
  5  6  2  0  0  0
 11 12  2  0  0  0
 12 13  1  0  0  0
 13 14  2  0  0  0
 14 15  1  0  0  0
 15  7  2  0  0  0
 14 10  1  0  0  0
  6  1  1  0  0  0
 42 37  1  0  0  0
 27 22  1  0  0  0
 34 32  1  0  0  0
 35 36  1  0  0  0
 20 21  1  0  0  0
 28 31  1  0  0  0
M  END
> <minimizedAffinity>
-7.40195

> <CNNscore>
0.1417684704

> <CNNaffinity>
6.6189193726

> <CNN_VS>
0.9383540750

> <CNNaffinity_variance>
0.1548021287

$$$$
[H]c1c([H])c([H])c(N2C(N3C([H])([H])C([H])([H])C([H])([H])C([H])([H])C3([H])[H])=Nc3c([H])c([H])c([H])c([H])c3C2([H])C([H])([H])C(=O)N([H])C([H])([H])c2c([H])c([H])c([H])c([H])c2[H])c([H])c1[H]


 34 38  0  0  0  0  0  0  0  0999 V2000
    0.8101  -50.8907  -21.8095 C   0  0  0  0  0  0  0  0  0  0  0  0
    0.1260  -51.8463  -20.9325 C   0  0  0  0  0  0  0  0  0  0  0  0
    0.1697  -51.8088  -19.5537 C   0  0  0  0  0  0  0  0  0  0  0  0
   -0.6335  -52.6824  -18.8257 C   0  0  0  0  0  0  0  0  0  0  0  0
   -1.4695  -53.5844  -19.4374 C   0  0  0  0  0  0  0  0  0  0  0  0
   -1.5184  -53.6353  -20.8043 C   0  0  0  0  0  0  0  0  0  0  0  0
   -0.7083  -52.7582  -21.5570 C   0  0  0  0  0  0  0  0  0  0  0  0
   -0.6362  -52.9736  -22.9628 N   0  0  0  0  0  0  0  0  0  0  0  0
    0.2314  -52.3252  -23.6847 C   0  0  0  0  0  0  0  0  0  0  0  0
    1.1658  -51.4514  -23.0707 N   0  0  0  0  0  0  0  0  0  0  0  0
    0.2458  -52.5820  -25.0884 N   0  0  0  0  0  0  0  0  0  0  0  0
    0.9120  -53.7574  -25.5627 C   0  0  0  0  0  0  0  0  0  0  0  0
    0.1279  -54.3939  -26.7258 C   0  0  0  0  0  0  0  0  0  0  0  0
   -0.0136  -53.3055  -27.7660 C   0  0  0  0  0  0  0  0  0  0  0  0
   -0.9093  -52.2451  -27.2284 C   0  0  0  0  0  0  0  0  0  0  0  0
   -0.4291  -51.6311  -25.9388 C   0  0  0  0  0  0  0  0  0  0  0  0
    2.3970  -51.1644  -23.7020 C   0  0  0  0  0  0  0  0  0  0  0  0
    2.6240  -50.0068  -24.4120 C   0  0  0  0  0  0  0  0  0  0  0  0
    3.8354  -49.7674  -25.0151 C   0  0  0  0  0  0  0  0  0  0  0  0
    4.8777  -50.6611  -24.9443 C   0  0  0  0  0  0  0  0  0  0  0  0
    4.6456  -51.8182  -24.2327 C   0  0  0  0  0  0  0  0  0  0  0  0
    3.4479  -52.0738  -23.6262 C   0  0  0  0  0  0  0  0  0  0  0  0
    1.7230  -49.8998  -21.2208 C   0  0  0  0  0  0  0  0  0  0  0  0
    3.3989  -51.4258  -20.4902 O   0  0  0  0  0  0  0  0  0  0  0  0
    2.6741  -50.4325  -20.2229 C   0  0  0  0  0  0  0  0  0  0  0  0
    2.8121  -49.8520  -18.9271 N   0  0  0  0  0  0  0  0  0  0  0  0
    2.2411  -49.0218  -18.6331 H   0  0  0  0  0  0  0  0  0  0  0  0
    3.7510  -50.4028  -17.9822 C   0  0  0  0  0  0  0  0  0  0  0  0
    3.1136  -50.8215  -16.7119 C   0  0  0  0  0  0  0  0  0  0  0  0
    1.7613  -50.6552  -16.5515 C   0  0  0  0  0  0  0  0  0  0  0  0
    1.1139  -51.0350  -15.3775 C   0  0  0  0  0  0  0  0  0  0  0  0
    1.8426  -51.5929  -14.3455 C   0  0  0  0  0  0  0  0  0  0  0  0
    3.2154  -51.7599  -14.5126 C   0  0  0  0  0  0  0  0  0  0  0  0
    3.8460  -51.3747  -15.6925 C   0  0  0  0  0  0  0  0  0  0  0  0
 24 25  2  0  0  0
 25 23  1  0  0  0
 23  1  1  0  0  0
  1  2  1  0  0  0
  2  3  2  0  0  0
  3  4  1  0  0  0
  4  5  2  0  0  0
  5  6  1  0  0  0
  6  7  2  0  0  0
  7  8  1  0  0  0
  8  9  2  0  0  0
  9 11  1  0  0  0
 11 12  1  0  0  0
 12 13  1  0  0  0
 13 14  1  0  0  0
 14 15  1  0  0  0
 15 16  1  0  0  0
  9 10  1  0  0  0
 10 17  1  0  0  0
 17 18  2  0  0  0
 18 19  1  0  0  0
 19 20  2  0  0  0
 20 21  1  0  0  0
 21 22  2  0  0  0
 25 26  1  0  0  0
 26 28  1  0  0  0
 28 29  1  0  0  0
 29 30  2  0  0  0
 30 31  1  0  0  0
 31 32  2  0  0  0
 32 33  1  0  0  0
 33 34  2  0  0  0
 10  1  1  0  0  0
 22 17  1  0  0  0
 34 29  1  0  0  0
  7  2  1  0  0  0
 16 11  1  0  0  0
 26 27  1  0  0  0
M  END
> <minimizedAffinity>
-8.33538

> <CNNscore>
0.4595266879

> <CNNaffinity>
6.8628883362

> <CNN_VS>
3.1536803246

> <CNNaffinity_variance>
0.0919990614

$$$$
[H]c1c([H])c([H])c(N2C(N3C([H])([H])C([H])([H])C([H])([H])C([H])([H])C3([H])[H])=Nc3c([H])c([H])c([H])c([H])c3C2([H])C([H])([H])C(=O)N([H])C([H])([H])c2c([H])c([H])c([H])c([H])c2[H])c([H])c1[H]


 34 38  0  0  0  0  0  0  0  0999 V2000
    1.5221  -50.2039  -23.9852 C   0  0  0  0  0  0  0  0  0  0  0  0
    2.0483  -50.9242  -25.1491 C   0  0  0  0  0  0  0  0  0  0  0  0
    1.3469  -51.8777  -25.8586 C   0  0  0  0  0  0  0  0  0  0  0  0
    1.8964  -52.3918  -27.0299 C   0  0  0  0  0  0  0  0  0  0  0  0
    3.1186  -51.9805  -27.5030 C   0  0  0  0  0  0  0  0  0  0  0  0
    3.8266  -51.0391  -26.8060 C   0  0  0  0  0  0  0  0  0  0  0  0
    3.2848  -50.5099  -25.6150 C   0  0  0  0  0  0  0  0  0  0  0  0
    4.1301  -49.6875  -24.8169 N   0  0  0  0  0  0  0  0  0  0  0  0
    3.7590  -49.3238  -23.6235 C   0  0  0  0  0  0  0  0  0  0  0  0
    2.5416  -49.8026  -23.0736 N   0  0  0  0  0  0  0  0  0  0  0  0
    4.6496  -48.4931  -22.8797 N   0  0  0  0  0  0  0  0  0  0  0  0
    4.4687  -47.0737  -22.9344 C   0  0  0  0  0  0  0  0  0  0  0  0
    4.7292  -46.4396  -21.5551 C   0  0  0  0  0  0  0  0  0  0  0  0
    6.1271  -46.8667  -21.1674 C   0  0  0  0  0  0  0  0  0  0  0  0
    6.1276  -48.3354  -20.9258 C   0  0  0  0  0  0  0  0  0  0  0  0
    5.6758  -49.1526  -22.1084 C   0  0  0  0  0  0  0  0  0  0  0  0
    2.3695  -49.8730  -21.6729 C   0  0  0  0  0  0  0  0  0  0  0  0
    2.8330  -50.9227  -20.9119 C   0  0  0  0  0  0  0  0  0  0  0  0
    2.6412  -50.9551  -19.5515 C   0  0  0  0  0  0  0  0  0  0  0  0
    1.9824  -49.9518  -18.8810 C   0  0  0  0  0  0  0  0  0  0  0  0
    1.5203  -48.9035  -19.6469 C   0  0  0  0  0  0  0  0  0  0  0  0
    1.7015  -48.8537  -21.0005 C   0  0  0  0  0  0  0  0  0  0  0  0
    0.2204  -50.5955  -23.4249 C   0  0  0  0  0  0  0  0  0  0  0  0
    0.5238  -52.9549  -23.5359 O   0  0  0  0  0  0  0  0  0  0  0  0
    0.1620  -51.9588  -22.8574 C   0  0  0  0  0  0  0  0  0  0  0  0
   -0.3014  -52.2047  -21.5308 N   0  0  0  0  0  0  0  0  0  0  0  0
   -0.6195  -51.4235  -20.9061 H   0  0  0  0  0  0  0  0  0  0  0  0
   -0.3439  -53.5502  -21.0153 C   0  0  0  0  0  0  0  0  0  0  0  0
   -0.7826  -54.5419  -22.0248 C   0  0  0  0  0  0  0  0  0  0  0  0
   -2.1121  -54.6238  -22.3532 C   0  0  0  0  0  0  0  0  0  0  0  0
   -2.5750  -55.5375  -23.2981 C   0  0  0  0  0  0  0  0  0  0  0  0
   -1.6817  -56.3846  -23.9239 C   0  0  0  0  0  0  0  0  0  0  0  0
   -0.3328  -56.2980  -23.5875 C   0  0  0  0  0  0  0  0  0  0  0  0
    0.1123  -55.3791  -22.6410 C   0  0  0  0  0  0  0  0  0  0  0  0
 24 25  2  0  0  0
 25 23  1  0  0  0
 23  1  1  0  0  0
  1  2  1  0  0  0
  2  3  2  0  0  0
  3  4  1  0  0  0
  4  5  2  0  0  0
  5  6  1  0  0  0
  6  7  2  0  0  0
  7  8  1  0  0  0
  8  9  2  0  0  0
  9 11  1  0  0  0
 11 12  1  0  0  0
 12 13  1  0  0  0
 13 14  1  0  0  0
 14 15  1  0  0  0
 15 16  1  0  0  0
  9 10  1  0  0  0
 10 17  1  0  0  0
 17 18  2  0  0  0
 18 19  1  0  0  0
 19 20  2  0  0  0
 20 21  1  0  0  0
 21 22  2  0  0  0
 25 26  1  0  0  0
 26 28  1  0  0  0
 28 29  1  0  0  0
 29 30  2  0  0  0
 30 31  1  0  0  0
 31 32  2  0  0  0
 32 33  1  0  0  0
 33 34  2  0  0  0
 10  1  1  0  0  0
 22 17  1  0  0  0
 34 29  1  0  0  0
  7  2  1  0  0  0
 16 11  1  0  0  0
 26 27  1  0  0  0
M  END
> <minimizedAffinity>
0.36297

> <CNNscore>
0.3971341252

> <CNNaffinity>
6.3992638588

> <CNN_VS>
2.5413661003

> <CNNaffinity_variance>
0.9715776443

$$$$
[H]c1c([H])c([H])c(N2C(N3C([H])([H])C([H])([H])C([H])([H])C([H])([H])C3([H])[H])=Nc3c([H])c([H])c([H])c([H])c3C2([H])C([H])([H])C(=O)N([H])C([H])([H])c2c([H])c([H])c([H])c([H])c2[H])c([H])c1[H]


 34 38  0  0  0  0  0  0  0  0999 V2000
    0.4913  -51.2745  -24.5659 C   0  0  0  0  0  0  0  0  0  0  0  0
    0.5581  -52.5930  -25.2042 C   0  0  0  0  0  0  0  0  0  0  0  0
    0.0195  -53.7460  -24.6705 C   0  0  0  0  0  0  0  0  0  0  0  0
    0.0208  -54.9111  -25.4326 C   0  0  0  0  0  0  0  0  0  0  0  0
    0.5439  -54.9506  -26.7020 C   0  0  0  0  0  0  0  0  0  0  0  0
    1.0857  -53.8151  -27.2411 C   0  0  0  0  0  0  0  0  0  0  0  0
    1.0946  -52.6263  -26.4804 C   0  0  0  0  0  0  0  0  0  0  0  0
    1.8395  -51.5251  -26.9907 N   0  0  0  0  0  0  0  0  0  0  0  0
    2.0431  -50.4705  -26.2555 C   0  0  0  0  0  0  0  0  0  0  0  0
    1.5898  -50.4346  -24.9112 N   0  0  0  0  0  0  0  0  0  0  0  0
    2.7907  -49.3994  -26.8301 N   0  0  0  0  0  0  0  0  0  0  0  0
    2.4061  -48.0545  -26.5242 C   0  0  0  0  0  0  0  0  0  0  0  0
    3.6485  -47.1611  -26.3485 C   0  0  0  0  0  0  0  0  0  0  0  0
    4.4346  -47.2986  -27.6329 C   0  0  0  0  0  0  0  0  0  0  0  0
    4.9642  -48.6868  -27.7220 C   0  0  0  0  0  0  0  0  0  0  0  0
    3.9008  -49.7537  -27.6817 C   0  0  0  0  0  0  0  0  0  0  0  0
    2.2201  -49.5930  -23.9672 C   0  0  0  0  0  0  0  0  0  0  0  0
    3.5866  -49.4423  -23.8909 C   0  0  0  0  0  0  0  0  0  0  0  0
    4.1607  -48.6163  -22.9546 C   0  0  0  0  0  0  0  0  0  0  0  0
    3.4106  -47.9016  -22.0509 C   0  0  0  0  0  0  0  0  0  0  0  0
    2.0436  -48.0558  -22.1311 C   0  0  0  0  0  0  0  0  0  0  0  0
    1.4546  -48.8724  -23.0551 C   0  0  0  0  0  0  0  0  0  0  0  0
   -0.0540  -51.1607  -23.2052 C   0  0  0  0  0  0  0  0  0  0  0  0
    0.2569  -52.5633  -21.3060 O   0  0  0  0  0  0  0  0  0  0  0  0
    0.7689  -51.7745  -22.1421 C   0  0  0  0  0  0  0  0  0  0  0  0
    2.1640  -51.5041  -22.0169 N   0  0  0  0  0  0  0  0  0  0  0  0
    2.6597  -50.8566  -22.6778 H   0  0  0  0  0  0  0  0  0  0  0  0
    2.9309  -52.1225  -20.9647 C   0  0  0  0  0  0  0  0  0  0  0  0
    3.9482  -51.2164  -20.3824 C   0  0  0  0  0  0  0  0  0  0  0  0
    3.6657  -50.5482  -19.2180 C   0  0  0  0  0  0  0  0  0  0  0  0
    4.5893  -49.6870  -18.6288 C   0  0  0  0  0  0  0  0  0  0  0  0
    5.8207  -49.4954  -19.2238 C   0  0  0  0  0  0  0  0  0  0  0  0
    6.1034  -50.1758  -20.4059 C   0  0  0  0  0  0  0  0  0  0  0  0
    5.1687  -51.0325  -20.9809 C   0  0  0  0  0  0  0  0  0  0  0  0
 24 25  2  0  0  0
 25 23  1  0  0  0
 23  1  1  0  0  0
  1  2  1  0  0  0
  2  3  2  0  0  0
  3  4  1  0  0  0
  4  5  2  0  0  0
  5  6  1  0  0  0
  6  7  2  0  0  0
  7  8  1  0  0  0
  8  9  2  0  0  0
  9 11  1  0  0  0
 11 12  1  0  0  0
 12 13  1  0  0  0
 13 14  1  0  0  0
 14 15  1  0  0  0
 15 16  1  0  0  0
  9 10  1  0  0  0
 10 17  1  0  0  0
 17 18  2  0  0  0
 18 19  1  0  0  0
 19 20  2  0  0  0
 20 21  1  0  0  0
 21 22  2  0  0  0
 25 26  1  0  0  0
 26 28  1  0  0  0
 28 29  1  0  0  0
 29 30  2  0  0  0
 30 31  1  0  0  0
 31 32  2  0  0  0
 32 33  1  0  0  0
 33 34  2  0  0  0
 10  1  1  0  0  0
 22 17  1  0  0  0
 34 29  1  0  0  0
  7  2  1  0  0  0
 16 11  1  0  0  0
 26 27  1  0  0  0
M  END
> <minimizedAffinity>
-2.00307

> <CNNscore>
0.3756654263

> <CNNaffinity>
6.3262915611

> <CNN_VS>
2.3765690327

> <CNNaffinity_variance>
0.9538524747

$$$$
[H]c1c([H])c([H])c(N2C(N3C([H])([H])C([H])([H])C([H])([H])C([H])([H])C3([H])[H])=Nc3c([H])c([H])c([H])c([H])c3C2([H])C([H])([H])C(=O)N([H])C([H])([H])c2c([H])c([H])c([H])c([H])c2[H])c([H])c1[H]


 34 38  0  0  0  0  0  0  0  0999 V2000
    0.8899  -51.0254  -21.7788 C   0  0  0  0  0  0  0  0  0  0  0  0
    0.1462  -51.9463  -20.9131 C   0  0  0  0  0  0  0  0  0  0  0  0
    0.2113  -51.9448  -19.5346 C   0  0  0  0  0  0  0  0  0  0  0  0
   -0.6469  -52.7713  -18.8144 C   0  0  0  0  0  0  0  0  0  0  0  0
   -1.5580  -53.5919  -19.4333 C   0  0  0  0  0  0  0  0  0  0  0  0
   -1.6291  -53.6065  -20.8001 C   0  0  0  0  0  0  0  0  0  0  0  0
   -0.7642  -52.7766  -21.5452 C   0  0  0  0  0  0  0  0  0  0  0  0
   -0.7279  -52.9635  -22.9564 N   0  0  0  0  0  0  0  0  0  0  0  0
    0.1771  -52.3667  -23.6767 C   0  0  0  0  0  0  0  0  0  0  0  0
    1.1843  -51.5818  -23.0575 N   0  0  0  0  0  0  0  0  0  0  0  0
    0.1527  -52.5906  -25.0859 N   0  0  0  0  0  0  0  0  0  0  0  0
    0.9302  -53.6670  -25.6218 C   0  0  0  0  0  0  0  0  0  0  0  0
    0.1712  -54.3689  -26.7637 C   0  0  0  0  0  0  0  0  0  0  0  0
   -0.1504  -53.2841  -27.7668 C   0  0  0  0  0  0  0  0  0  0  0  0
   -1.1385  -52.3507  -27.1601 C   0  0  0  0  0  0  0  0  0  0  0  0
   -0.6720  -51.7104  -25.8784 C   0  0  0  0  0  0  0  0  0  0  0  0
    2.4252  -51.3751  -23.7010 C   0  0  0  0  0  0  0  0  0  0  0  0
    2.6074  -50.4426  -24.6974 C   0  0  0  0  0  0  0  0  0  0  0  0
    3.8306  -50.2754  -25.3013 C   0  0  0  0  0  0  0  0  0  0  0  0
    4.9294  -51.0223  -24.9480 C   0  0  0  0  0  0  0  0  0  0  0  0
    4.7420  -51.9543  -23.9503 C   0  0  0  0  0  0  0  0  0  0  0  0
    3.5336  -52.1349  -23.3384 C   0  0  0  0  0  0  0  0  0  0  0  0
    1.8842  -50.1216  -21.1819 C   0  0  0  0  0  0  0  0  0  0  0  0
    0.8084  -48.0056  -21.3720 O   0  0  0  0  0  0  0  0  0  0  0  0
    1.8126  -48.7168  -21.6352 C   0  0  0  0  0  0  0  0  0  0  0  0
    2.8656  -48.1105  -22.3825 N   0  0  0  0  0  0  0  0  0  0  0  0
    3.7338  -48.6417  -22.6393 H   0  0  0  0  0  0  0  0  0  0  0  0
    2.7560  -46.7373  -22.8070 C   0  0  0  0  0  0  0  0  0  0  0  0
    3.3625  -46.4936  -24.1366 C   0  0  0  0  0  0  0  0  0  0  0  0
    4.6777  -46.8231  -24.3461 C   0  0  0  0  0  0  0  0  0  0  0  0
    5.2939  -46.6163  -25.5788 C   0  0  0  0  0  0  0  0  0  0  0  0
    4.5716  -46.0671  -26.6199 C   0  0  0  0  0  0  0  0  0  0  0  0
    3.2366  -45.7339  -26.4027 C   0  0  0  0  0  0  0  0  0  0  0  0
    2.6369  -45.9474  -25.1646 C   0  0  0  0  0  0  0  0  0  0  0  0
 24 25  2  0  0  0
 25 23  1  0  0  0
 23  1  1  0  0  0
  1  2  1  0  0  0
  2  3  2  0  0  0
  3  4  1  0  0  0
  4  5  2  0  0  0
  5  6  1  0  0  0
  6  7  2  0  0  0
  7  8  1  0  0  0
  8  9  2  0  0  0
  9 11  1  0  0  0
 11 12  1  0  0  0
 12 13  1  0  0  0
 13 14  1  0  0  0
 14 15  1  0  0  0
 15 16  1  0  0  0
  9 10  1  0  0  0
 10 17  1  0  0  0
 17 18  2  0  0  0
 18 19  1  0  0  0
 19 20  2  0  0  0
 20 21  1  0  0  0
 21 22  2  0  0  0
 25 26  1  0  0  0
 26 28  1  0  0  0
 28 29  1  0  0  0
 29 30  2  0  0  0
 30 31  1  0  0  0
 31 32  2  0  0  0
 32 33  1  0  0  0
 33 34  2  0  0  0
 10  1  1  0  0  0
 22 17  1  0  0  0
 34 29  1  0  0  0
  7  2  1  0  0  0
 16 11  1  0  0  0
 26 27  1  0  0  0
M  END
> <minimizedAffinity>
-7.86276

> <CNNscore>
0.3739866316

> <CNNaffinity>
6.8000974655

> <CNN_VS>
2.5431456566

> <CNNaffinity_variance>
0.1115148813

$$$$
[H]c1c([H])c([H])c(N2C(N3C([H])([H])C([H])([H])C([H])([H])C([H])([H])C3([H])[H])=Nc3c([H])c([H])c([H])c([H])c3C2([H])C([H])([H])C(=O)N([H])C([H])([H])c2c([H])c([H])c([H])c([H])c2[H])c([H])c1[H]


 34 38  0  0  0  0  0  0  0  0999 V2000
    0.4806  -51.5299  -22.9893 C   0  0  0  0  0  0  0  0  0  0  0  0
    0.5510  -52.5963  -23.9934 C   0  0  0  0  0  0  0  0  0  0  0  0
   -0.4424  -53.5291  -24.2112 C   0  0  0  0  0  0  0  0  0  0  0  0
   -0.3254  -54.4060  -25.2862 C   0  0  0  0  0  0  0  0  0  0  0  0
    0.7510  -54.3736  -26.1389 C   0  0  0  0  0  0  0  0  0  0  0  0
    1.7455  -53.4565  -25.9309 C   0  0  0  0  0  0  0  0  0  0  0  0
    1.6433  -52.5622  -24.8439 C   0  0  0  0  0  0  0  0  0  0  0  0
    2.7819  -51.7620  -24.5418 N   0  0  0  0  0  0  0  0  0  0  0  0
    2.8210  -51.0588  -23.4472 C   0  0  0  0  0  0  0  0  0  0  0  0
    1.7627  -51.1381  -22.5053 N   0  0  0  0  0  0  0  0  0  0  0  0
    3.9879  -50.2727  -23.2089 N   0  0  0  0  0  0  0  0  0  0  0  0
    3.9038  -48.8533  -23.3784 C   0  0  0  0  0  0  0  0  0  0  0  0
    4.7231  -48.1276  -22.2945 C   0  0  0  0  0  0  0  0  0  0  0  0
    6.1270  -48.6781  -22.4076 C   0  0  0  0  0  0  0  0  0  0  0  0
    6.1140  -50.1074  -21.9924 C   0  0  0  0  0  0  0  0  0  0  0  0
    5.1816  -50.9732  -22.7998 C   0  0  0  0  0  0  0  0  0  0  0  0
    1.9942  -50.8385  -21.1439 C   0  0  0  0  0  0  0  0  0  0  0  0
    2.6440  -51.6978  -20.2866 C   0  0  0  0  0  0  0  0  0  0  0  0
    2.8456  -51.3701  -18.9673 C   0  0  0  0  0  0  0  0  0  0  0  0
    2.4141  -50.1782  -18.4350 C   0  0  0  0  0  0  0  0  0  0  0  0
    1.7642  -49.3215  -19.2969 C   0  0  0  0  0  0  0  0  0  0  0  0
    1.5546  -49.6299  -20.6116 C   0  0  0  0  0  0  0  0  0  0  0  0
   -0.6435  -51.5069  -22.0418 C   0  0  0  0  0  0  0  0  0  0  0  0
   -0.2636  -53.6436  -21.0615 O   0  0  0  0  0  0  0  0  0  0  0  0
   -0.5161  -52.4229  -20.8892 C   0  0  0  0  0  0  0  0  0  0  0  0
   -0.6716  -51.9707  -19.5451 N   0  0  0  0  0  0  0  0  0  0  0  0
   -0.8831  -50.9666  -19.3241 H   0  0  0  0  0  0  0  0  0  0  0  0
   -0.5407  -52.8972  -18.4487 C   0  0  0  0  0  0  0  0  0  0  0  0
   -1.3303  -52.5001  -17.2596 C   0  0  0  0  0  0  0  0  0  0  0  0
   -2.6389  -52.8992  -17.1577 C   0  0  0  0  0  0  0  0  0  0  0  0
   -3.4231  -52.5543  -16.0586 C   0  0  0  0  0  0  0  0  0  0  0  0
   -2.8788  -51.7930  -15.0431 C   0  0  0  0  0  0  0  0  0  0  0  0
   -1.5498  -51.3898  -15.1507 C   0  0  0  0  0  0  0  0  0  0  0  0
   -0.7807  -51.7435  -16.2560 C   0  0  0  0  0  0  0  0  0  0  0  0
 24 25  2  0  0  0
 25 23  1  0  0  0
 23  1  1  0  0  0
  1  2  1  0  0  0
  2  3  2  0  0  0
  3  4  1  0  0  0
  4  5  2  0  0  0
  5  6  1  0  0  0
  6  7  2  0  0  0
  7  8  1  0  0  0
  8  9  2  0  0  0
  9 11  1  0  0  0
 11 12  1  0  0  0
 12 13  1  0  0  0
 13 14  1  0  0  0
 14 15  1  0  0  0
 15 16  1  0  0  0
  9 10  1  0  0  0
 10 17  1  0  0  0
 17 18  2  0  0  0
 18 19  1  0  0  0
 19 20  2  0  0  0
 20 21  1  0  0  0
 21 22  2  0  0  0
 25 26  1  0  0  0
 26 28  1  0  0  0
 28 29  1  0  0  0
 29 30  2  0  0  0
 30 31  1  0  0  0
 31 32  2  0  0  0
 32 33  1  0  0  0
 33 34  2  0  0  0
 10  1  1  0  0  0
 22 17  1  0  0  0
 34 29  1  0  0  0
  7  2  1  0  0  0
 16 11  1  0  0  0
 26 27  1  0  0  0
M  END
> <minimizedAffinity>
-6.98949

> <CNNscore>
0.3478654325

> <CNNaffinity>
6.6285963058

> <CNN_VS>
2.3058595657

> <CNNaffinity_variance>
0.2862368822

$$$$
[H]c1c([H])c([H])c(N2C(N3C([H])([H])C([H])([H])C([H])([H])C([H])([H])C3([H])[H])=Nc3c([H])c([H])c([H])c([H])c3C2([H])C([H])([H])C(=O)N([H])C([H])([H])c2c([H])c([H])c([H])c([H])c2[H])c([H])c1[H]


 34 38  0  0  0  0  0  0  0  0999 V2000
    1.1537  -51.1584  -21.7777 C   0  0  0  0  0  0  0  0  0  0  0  0
    0.3247  -52.0357  -20.9450 C   0  0  0  0  0  0  0  0  0  0  0  0
    0.3706  -52.0739  -19.5663 C   0  0  0  0  0  0  0  0  0  0  0  0
   -0.5627  -52.8441  -18.8778 C   0  0  0  0  0  0  0  0  0  0  0  0
   -1.5298  -53.5708  -19.5284 C   0  0  0  0  0  0  0  0  0  0  0  0
   -1.5830  -53.5454  -20.8959 C   0  0  0  0  0  0  0  0  0  0  0  0
   -0.6424  -52.7717  -21.6090 C   0  0  0  0  0  0  0  0  0  0  0  0
   -0.6021  -52.9258  -23.0241 N   0  0  0  0  0  0  0  0  0  0  0  0
    0.3589  -52.3883  -23.7180 C   0  0  0  0  0  0  0  0  0  0  0  0
    1.4188  -51.7052  -23.0669 N   0  0  0  0  0  0  0  0  0  0  0  0
    0.3356  -52.5742  -25.1327 N   0  0  0  0  0  0  0  0  0  0  0  0
    0.9665  -53.7368  -25.6811 C   0  0  0  0  0  0  0  0  0  0  0  0
    0.1429  -54.2987  -26.8552 C   0  0  0  0  0  0  0  0  0  0  0  0
   -0.0004  -53.1567  -27.8360 C   0  0  0  0  0  0  0  0  0  0  0  0
   -0.8615  -52.1077  -27.2247 C   0  0  0  0  0  0  0  0  0  0  0  0
   -0.3392  -51.5688  -25.9180 C   0  0  0  0  0  0  0  0  0  0  0  0
    2.6813  -51.5861  -23.6902 C   0  0  0  0  0  0  0  0  0  0  0  0
    3.6685  -52.5387  -23.5733 C   0  0  0  0  0  0  0  0  0  0  0  0
    4.8854  -52.3829  -24.1926 C   0  0  0  0  0  0  0  0  0  0  0  0
    5.1822  -51.2785  -24.9556 C   0  0  0  0  0  0  0  0  0  0  0  0
    4.1910  -50.3278  -25.0697 C   0  0  0  0  0  0  0  0  0  0  0  0
    2.9751  -50.4653  -24.4613 C   0  0  0  0  0  0  0  0  0  0  0  0
    2.2108  -50.3552  -21.1459 C   0  0  0  0  0  0  0  0  0  0  0  0
    0.8866  -48.6734  -20.1025 O   0  0  0  0  0  0  0  0  0  0  0  0
    1.7819  -49.5496  -19.9836 C   0  0  0  0  0  0  0  0  0  0  0  0
    2.3563  -49.7263  -18.6898 N   0  0  0  0  0  0  0  0  0  0  0  0
    3.1078  -50.4379  -18.5146 H   0  0  0  0  0  0  0  0  0  0  0  0
    1.9104  -48.9188  -17.5821 C   0  0  0  0  0  0  0  0  0  0  0  0
    0.9675  -49.6326  -16.6896 C   0  0  0  0  0  0  0  0  0  0  0  0
   -0.2348  -49.0501  -16.3780 C   0  0  0  0  0  0  0  0  0  0  0  0
   -1.1571  -49.6814  -15.5455 C   0  0  0  0  0  0  0  0  0  0  0  0
   -0.8623  -50.9227  -15.0170 C   0  0  0  0  0  0  0  0  0  0  0  0
    0.3597  -51.5103  -15.3359 C   0  0  0  0  0  0  0  0  0  0  0  0
    1.2694  -50.8654  -16.1693 C   0  0  0  0  0  0  0  0  0  0  0  0
 24 25  2  0  0  0
 25 23  1  0  0  0
 23  1  1  0  0  0
  1  2  1  0  0  0
  2  3  2  0  0  0
  3  4  1  0  0  0
  4  5  2  0  0  0
  5  6  1  0  0  0
  6  7  2  0  0  0
  7  8  1  0  0  0
  8  9  2  0  0  0
  9 11  1  0  0  0
 11 12  1  0  0  0
 12 13  1  0  0  0
 13 14  1  0  0  0
 14 15  1  0  0  0
 15 16  1  0  0  0
  9 10  1  0  0  0
 10 17  1  0  0  0
 17 18  2  0  0  0
 18 19  1  0  0  0
 19 20  2  0  0  0
 20 21  1  0  0  0
 21 22  2  0  0  0
 25 26  1  0  0  0
 26 28  1  0  0  0
 28 29  1  0  0  0
 29 30  2  0  0  0
 30 31  1  0  0  0
 31 32  2  0  0  0
 32 33  1  0  0  0
 33 34  2  0  0  0
 10  1  1  0  0  0
 22 17  1  0  0  0
 34 29  1  0  0  0
  7  2  1  0  0  0
 16 11  1  0  0  0
 26 27  1  0  0  0
M  END
> <minimizedAffinity>
-7.80880

> <CNNscore>
0.3212414384

> <CNNaffinity>
6.7902288437

> <CNN_VS>
2.1813027859

> <CNNaffinity_variance>
0.0604130626

$$$$
[H]c1c([H])c([H])c(N2C(N3C([H])([H])C([H])([H])C([H])([H])C([H])([H])C3([H])[H])=Nc3c([H])c([H])c([H])c([H])c3C2([H])C([H])([H])C(=O)N([H])C([H])([H])c2c([H])c([H])c([H])c([H])c2[H])c([H])c1[H]


 34 38  0  0  0  0  0  0  0  0999 V2000
    1.1941  -50.8648  -22.8344 C   0  0  0  0  0  0  0  0  0  0  0  0
    0.9354  -52.0219  -21.9714 C   0  0  0  0  0  0  0  0  0  0  0  0
    1.4001  -52.1497  -20.6783 C   0  0  0  0  0  0  0  0  0  0  0  0
    0.9729  -53.2276  -19.9077 C   0  0  0  0  0  0  0  0  0  0  0  0
    0.1025  -54.1719  -20.3948 C   0  0  0  0  0  0  0  0  0  0  0  0
   -0.3618  -54.0595  -21.6775 C   0  0  0  0  0  0  0  0  0  0  0  0
    0.0637  -52.9740  -22.4728 C   0  0  0  0  0  0  0  0  0  0  0  0
   -0.2789  -52.9977  -23.8549 N   0  0  0  0  0  0  0  0  0  0  0  0
    0.2377  -52.1303  -24.6764 C   0  0  0  0  0  0  0  0  0  0  0  0
    1.2051  -51.1977  -24.2202 N   0  0  0  0  0  0  0  0  0  0  0  0
   -0.1538  -52.2043  -26.0467 N   0  0  0  0  0  0  0  0  0  0  0  0
    0.7728  -52.7446  -26.9953 C   0  0  0  0  0  0  0  0  0  0  0  0
    0.0391  -53.6045  -28.0417 C   0  0  0  0  0  0  0  0  0  0  0  0
   -1.0076  -52.6996  -28.6517 C   0  0  0  0  0  0  0  0  0  0  0  0
   -2.0318  -52.3894  -27.6171 C   0  0  0  0  0  0  0  0  0  0  0  0
   -1.4761  -51.7319  -26.3803 C   0  0  0  0  0  0  0  0  0  0  0  0
    2.1359  -50.6351  -25.1224 C   0  0  0  0  0  0  0  0  0  0  0  0
    2.0176  -49.3580  -25.6231 C   0  0  0  0  0  0  0  0  0  0  0  0
    2.9431  -48.8493  -26.5024 C   0  0  0  0  0  0  0  0  0  0  0  0
    4.0277  -49.5796  -26.9272 C   0  0  0  0  0  0  0  0  0  0  0  0
    4.1418  -50.8572  -26.4233 C   0  0  0  0  0  0  0  0  0  0  0  0
    3.2317  -51.3802  -25.5483 C   0  0  0  0  0  0  0  0  0  0  0  0
    2.1194  -49.8181  -22.3760 C   0  0  0  0  0  0  0  0  0  0  0  0
    0.7331  -48.3559  -21.1067 O   0  0  0  0  0  0  0  0  0  0  0  0
    1.7254  -49.1294  -21.1293 C   0  0  0  0  0  0  0  0  0  0  0  0
    2.4433  -49.3078  -19.9095 N   0  0  0  0  0  0  0  0  0  0  0  0
    3.2812  -49.9374  -19.8519 H   0  0  0  0  0  0  0  0  0  0  0  0
    2.0269  -48.6163  -18.7152 C   0  0  0  0  0  0  0  0  0  0  0  0
    1.4752  -49.5256  -17.6838 C   0  0  0  0  0  0  0  0  0  0  0  0
    0.2993  -50.1877  -17.9309 C   0  0  0  0  0  0  0  0  0  0  0  0
   -0.2596  -51.0556  -16.9949 C   0  0  0  0  0  0  0  0  0  0  0  0
    0.3781  -51.2603  -15.7871 C   0  0  0  0  0  0  0  0  0  0  0  0
    1.5717  -50.5859  -15.5404 C   0  0  0  0  0  0  0  0  0  0  0  0
    2.1160  -49.7223  -16.4870 C   0  0  0  0  0  0  0  0  0  0  0  0
 24 25  2  0  0  0
 25 23  1  0  0  0
 23  1  1  0  0  0
  1  2  1  0  0  0
  2  3  2  0  0  0
  3  4  1  0  0  0
  4  5  2  0  0  0
  5  6  1  0  0  0
  6  7  2  0  0  0
  7  8  1  0  0  0
  8  9  2  0  0  0
  9 11  1  0  0  0
 11 12  1  0  0  0
 12 13  1  0  0  0
 13 14  1  0  0  0
 14 15  1  0  0  0
 15 16  1  0  0  0
  9 10  1  0  0  0
 10 17  1  0  0  0
 17 18  2  0  0  0
 18 19  1  0  0  0
 19 20  2  0  0  0
 20 21  1  0  0  0
 21 22  2  0  0  0
 25 26  1  0  0  0
 26 28  1  0  0  0
 28 29  1  0  0  0
 29 30  2  0  0  0
 30 31  1  0  0  0
 31 32  2  0  0  0
 32 33  1  0  0  0
 33 34  2  0  0  0
 10  1  1  0  0  0
 22 17  1  0  0  0
 34 29  1  0  0  0
  7  2  1  0  0  0
 16 11  1  0  0  0
 26 27  1  0  0  0
M  END
> <minimizedAffinity>
-6.94603

> <CNNscore>
0.3123092651

> <CNNaffinity>
6.6568746567

> <CNN_VS>
2.0790035725

> <CNNaffinity_variance>
0.0836525932

$$$$
[H]c1c([H])c([H])c(N2C(N3C([H])([H])C([H])([H])C([H])([H])C([H])([H])C3([H])[H])=Nc3c([H])c([H])c([H])c([H])c3C2([H])C([H])([H])C(=O)N([H])C([H])([H])c2c([H])c([H])c([H])c([H])c2[H])c([H])c1[H]


 34 38  0  0  0  0  0  0  0  0999 V2000
    2.2052  -51.5972  -22.2655 C   0  0  0  0  0  0  0  0  0  0  0  0
    1.0057  -52.4408  -22.2604 C   0  0  0  0  0  0  0  0  0  0  0  0
    0.4116  -52.9585  -23.3933 C   0  0  0  0  0  0  0  0  0  0  0  0
   -0.6392  -53.8613  -23.2556 C   0  0  0  0  0  0  0  0  0  0  0  0
   -1.1064  -54.2533  -22.0249 C   0  0  0  0  0  0  0  0  0  0  0  0
   -0.5292  -53.7433  -20.8935 C   0  0  0  0  0  0  0  0  0  0  0  0
    0.5355  -52.8249  -21.0158 C   0  0  0  0  0  0  0  0  0  0  0  0
    0.9758  -52.1675  -19.8317 N   0  0  0  0  0  0  0  0  0  0  0  0
    1.8193  -51.1787  -19.9022 C   0  0  0  0  0  0  0  0  0  0  0  0
    2.2535  -50.6946  -21.1635 N   0  0  0  0  0  0  0  0  0  0  0  0
    2.2257  -50.5691  -18.6777 N   0  0  0  0  0  0  0  0  0  0  0  0
    1.3828  -49.5666  -18.0990 C   0  0  0  0  0  0  0  0  0  0  0  0
    1.3536  -49.7012  -16.5648 C   0  0  0  0  0  0  0  0  0  0  0  0
    2.7970  -49.6218  -16.1210 C   0  0  0  0  0  0  0  0  0  0  0  0
    3.5121  -50.8348  -16.6036 C   0  0  0  0  0  0  0  0  0  0  0  0
    3.4685  -51.0196  -18.0984 C   0  0  0  0  0  0  0  0  0  0  0  0
    2.7096  -49.3641  -21.2994 C   0  0  0  0  0  0  0  0  0  0  0  0
    1.8861  -48.3221  -21.6622 C   0  0  0  0  0  0  0  0  0  0  0  0
    2.3704  -47.0421  -21.7874 C   0  0  0  0  0  0  0  0  0  0  0  0
    3.6907  -46.7335  -21.5599 C   0  0  0  0  0  0  0  0  0  0  0  0
    4.5110  -47.7798  -21.1970 C   0  0  0  0  0  0  0  0  0  0  0  0
    4.0476  -49.0589  -21.0675 C   0  0  0  0  0  0  0  0  0  0  0  0
    2.7565  -51.1382  -23.5490 C   0  0  0  0  0  0  0  0  0  0  0  0
    3.1707  -53.2158  -24.6366 O   0  0  0  0  0  0  0  0  0  0  0  0
    2.6144  -52.0876  -24.6725 C   0  0  0  0  0  0  0  0  0  0  0  0
    1.8496  -51.7724  -25.8347 N   0  0  0  0  0  0  0  0  0  0  0  0
    1.3574  -50.8508  -25.9355 H   0  0  0  0  0  0  0  0  0  0  0  0
    1.7372  -52.7264  -26.9095 C   0  0  0  0  0  0  0  0  0  0  0  0
    0.4020  -52.7185  -27.5515 C   0  0  0  0  0  0  0  0  0  0  0  0
   -0.7032  -52.4079  -26.8004 C   0  0  0  0  0  0  0  0  0  0  0  0
   -1.9804  -52.3840  -27.3574 C   0  0  0  0  0  0  0  0  0  0  0  0
   -2.1472  -52.6787  -28.6962 C   0  0  0  0  0  0  0  0  0  0  0  0
   -1.0223  -52.9936  -29.4551 C   0  0  0  0  0  0  0  0  0  0  0  0
    0.2464  -53.0127  -28.8822 C   0  0  0  0  0  0  0  0  0  0  0  0
 24 25  2  0  0  0
 25 23  1  0  0  0
 23  1  1  0  0  0
  1  2  1  0  0  0
  2  3  2  0  0  0
  3  4  1  0  0  0
  4  5  2  0  0  0
  5  6  1  0  0  0
  6  7  2  0  0  0
  7  8  1  0  0  0
  8  9  2  0  0  0
  9 11  1  0  0  0
 11 12  1  0  0  0
 12 13  1  0  0  0
 13 14  1  0  0  0
 14 15  1  0  0  0
 15 16  1  0  0  0
  9 10  1  0  0  0
 10 17  1  0  0  0
 17 18  2  0  0  0
 18 19  1  0  0  0
 19 20  2  0  0  0
 20 21  1  0  0  0
 21 22  2  0  0  0
 25 26  1  0  0  0
 26 28  1  0  0  0
 28 29  1  0  0  0
 29 30  2  0  0  0
 30 31  1  0  0  0
 31 32  2  0  0  0
 32 33  1  0  0  0
 33 34  2  0  0  0
 10  1  1  0  0  0
 22 17  1  0  0  0
 34 29  1  0  0  0
  7  2  1  0  0  0
 16 11  1  0  0  0
 26 27  1  0  0  0
M  END
> <minimizedAffinity>
-8.64589

> <CNNscore>
0.2902514338

> <CNNaffinity>
6.7591757774

> <CNN_VS>
1.9618604183

> <CNNaffinity_variance>
0.1161141545

$$$$
[H]c1c([H])c([H])c(N2C(N3C([H])([H])C([H])([H])C([H])([H])C([H])([H])C3([H])[H])=Nc3c([H])c([H])c([H])c([H])c3C2([H])C([H])([H])C(=O)N([H])C([H])([H])c2c([H])c([H])c([H])c([H])c2[H])c([H])c1[H]


 34 38  0  0  0  0  0  0  0  0999 V2000
    1.4198  -51.2451  -22.2090 C   0  0  0  0  0  0  0  0  0  0  0  0
    0.4895  -51.8830  -21.2719 C   0  0  0  0  0  0  0  0  0  0  0  0
   -0.7413  -52.3981  -21.6242 C   0  0  0  0  0  0  0  0  0  0  0  0
   -1.4763  -53.1062  -20.6772 C   0  0  0  0  0  0  0  0  0  0  0  0
   -1.0154  -53.3079  -19.3991 C   0  0  0  0  0  0  0  0  0  0  0  0
    0.2016  -52.7978  -19.0356 C   0  0  0  0  0  0  0  0  0  0  0  0
    0.9580  -52.0752  -19.9830 C   0  0  0  0  0  0  0  0  0  0  0  0
    2.1181  -51.3937  -19.5163 N   0  0  0  0  0  0  0  0  0  0  0  0
    2.7504  -50.5621  -20.2927 C   0  0  0  0  0  0  0  0  0  0  0  0
    2.2499  -50.2674  -21.5874 N   0  0  0  0  0  0  0  0  0  0  0  0
    3.9100  -49.9186  -19.7658 N   0  0  0  0  0  0  0  0  0  0  0  0
    5.1783  -50.1877  -20.3736 C   0  0  0  0  0  0  0  0  0  0  0  0
    6.0343  -48.9085  -20.4326 C   0  0  0  0  0  0  0  0  0  0  0  0
    6.1286  -48.4147  -19.0064 C   0  0  0  0  0  0  0  0  0  0  0  0
    4.7806  -47.9598  -18.5688 C   0  0  0  0  0  0  0  0  0  0  0  0
    3.7169  -49.0241  -18.6497 C   0  0  0  0  0  0  0  0  0  0  0  0
    2.5728  -49.0440  -22.2165 C   0  0  0  0  0  0  0  0  0  0  0  0
    3.4380  -48.9546  -23.2838 C   0  0  0  0  0  0  0  0  0  0  0  0
    3.7290  -47.7438  -23.8651 C   0  0  0  0  0  0  0  0  0  0  0  0
    3.1783  -46.5661  -23.4182 C   0  0  0  0  0  0  0  0  0  0  0  0
    2.3130  -46.6607  -22.3498 C   0  0  0  0  0  0  0  0  0  0  0  0
    2.0116  -47.8554  -21.7588 C   0  0  0  0  0  0  0  0  0  0  0  0
    0.9892  -50.9956  -23.5925 C   0  0  0  0  0  0  0  0  0  0  0  0
    2.2421  -52.5355  -24.9078 O   0  0  0  0  0  0  0  0  0  0  0  0
    1.1131  -52.1479  -24.5095 C   0  0  0  0  0  0  0  0  0  0  0  0
   -0.0275  -52.8645  -24.9792 N   0  0  0  0  0  0  0  0  0  0  0  0
   -1.0009  -52.5990  -24.6898 H   0  0  0  0  0  0  0  0  0  0  0  0
    0.1366  -53.9825  -25.8742 C   0  0  0  0  0  0  0  0  0  0  0  0
   -0.0225  -53.6097  -27.2993 C   0  0  0  0  0  0  0  0  0  0  0  0
   -1.1409  -52.9196  -27.6928 C   0  0  0  0  0  0  0  0  0  0  0  0
   -1.3364  -52.5434  -29.0203 C   0  0  0  0  0  0  0  0  0  0  0  0
   -0.3872  -52.8687  -29.9692 C   0  0  0  0  0  0  0  0  0  0  0  0
    0.7468  -53.5695  -29.5652 C   0  0  0  0  0  0  0  0  0  0  0  0
    0.9259  -53.9374  -28.2346 C   0  0  0  0  0  0  0  0  0  0  0  0
 24 25  2  0  0  0
 25 23  1  0  0  0
 23  1  1  0  0  0
  1  2  1  0  0  0
  2  3  2  0  0  0
  3  4  1  0  0  0
  4  5  2  0  0  0
  5  6  1  0  0  0
  6  7  2  0  0  0
  7  8  1  0  0  0
  8  9  2  0  0  0
  9 11  1  0  0  0
 11 12  1  0  0  0
 12 13  1  0  0  0
 13 14  1  0  0  0
 14 15  1  0  0  0
 15 16  1  0  0  0
  9 10  1  0  0  0
 10 17  1  0  0  0
 17 18  2  0  0  0
 18 19  1  0  0  0
 19 20  2  0  0  0
 20 21  1  0  0  0
 21 22  2  0  0  0
 25 26  1  0  0  0
 26 28  1  0  0  0
 28 29  1  0  0  0
 29 30  2  0  0  0
 30 31  1  0  0  0
 31 32  2  0  0  0
 32 33  1  0  0  0
 33 34  2  0  0  0
 10  1  1  0  0  0
 22 17  1  0  0  0
 34 29  1  0  0  0
  7  2  1  0  0  0
 16 11  1  0  0  0
 26 27  1  0  0  0
M  END
> <minimizedAffinity>
-7.30795

> <CNNscore>
0.2786268294

> <CNNaffinity>
6.6896352768

> <CNN_VS>
1.8639118671

> <CNNaffinity_variance>
0.1329462826

$$$$
[H]c1c([H])c([H])c(C([H])(N2C([H])([H])C([H])([H])N(C([H])([H])C#N)C([H])([H])C2([H])[H])C([H])([H])OC([H])([H])c2c([H])c(C(F)(F)F)c([H])c(C(F)(F)F)c2[H])c([H])c1[H]


 33 35  0  0  0  0  0  0  0  0999 V2000
   -0.3939  -53.5053  -23.8503 C   0  0  0  0  0  0  0  0  0  0  0  0
    0.5750  -53.3919  -24.9783 C   0  0  0  0  0  0  0  0  0  0  0  0
    3.8347  -50.7863  -24.4327 N   0  0  0  0  0  0  0  0  0  0  0  0
    2.5324  -50.3365  -24.0972 C   0  0  0  0  0  0  0  0  0  0  0  0
    1.4577  -51.1231  -24.8427 C   0  0  0  0  0  0  0  0  0  0  0  0
    1.6318  -52.5170  -24.6685 N   0  0  0  0  0  0  0  0  0  0  0  0
    2.9433  -53.0470  -24.8005 C   0  0  0  0  0  0  0  0  0  0  0  0
    3.8726  -51.9513  -25.2490 C   0  0  0  0  0  0  0  0  0  0  0  0
    4.8435  -49.8142  -24.6310 C   0  0  0  0  0  0  0  0  0  0  0  0
    4.1656  -48.2735  -26.6774 N   0  0  0  0  0  0  0  0  0  0  0  0
    4.4733  -48.9645  -25.7742 C   0  0  0  0  0  0  0  0  0  0  0  0
   -0.1619  -53.0819  -26.2289 C   0  0  0  0  0  0  0  0  0  0  0  0
   -1.4082  -52.4965  -26.2643 C   0  0  0  0  0  0  0  0  0  0  0  0
   -2.0770  -52.2600  -27.4501 C   0  0  0  0  0  0  0  0  0  0  0  0
   -1.5250  -52.6015  -28.6621 C   0  0  0  0  0  0  0  0  0  0  0  0
   -0.2725  -53.1881  -28.6473 C   0  0  0  0  0  0  0  0  0  0  0  0
    0.3839  -53.4193  -27.4518 C   0  0  0  0  0  0  0  0  0  0  0  0
    0.1747  -53.6318  -22.5854 O   0  0  0  0  0  0  0  0  0  0  0  0
   -0.8018  -53.0581  -21.7317 C   0  0  0  0  0  0  0  0  0  0  0  0
   -0.2746  -52.0867  -20.7941 C   0  0  0  0  0  0  0  0  0  0  0  0
   -0.4653  -52.2751  -19.4073 C   0  0  0  0  0  0  0  0  0  0  0  0
    0.0075  -51.4050  -18.4731 C   0  0  0  0  0  0  0  0  0  0  0  0
    0.7016  -50.2919  -18.8783 C   0  0  0  0  0  0  0  0  0  0  0  0
    0.8960  -50.0926  -20.2245 C   0  0  0  0  0  0  0  0  0  0  0  0
    0.4179  -50.9759  -21.1951 C   0  0  0  0  0  0  0  0  0  0  0  0
   -0.1956  -51.6027  -17.0064 C   0  0  0  0  0  0  0  0  0  0  0  0
    0.9539  -51.4514  -16.3088 F   0  0  0  0  0  0  0  0  0  0  0  0
   -0.7444  -52.8696  -16.8658 F   0  0  0  0  0  0  0  0  0  0  0  0
   -1.1856  -50.7136  -16.6179 F   0  0  0  0  0  0  0  0  0  0  0  0
    1.6692  -48.8691  -20.6102 C   0  0  0  0  0  0  0  0  0  0  0  0
    1.9024  -48.0772  -19.4780 F   0  0  0  0  0  0  0  0  0  0  0  0
    2.8802  -49.2986  -21.0875 F   0  0  0  0  0  0  0  0  0  0  0  0
    1.0117  -48.0849  -21.5349 F   0  0  0  0  0  0  0  0  0  0  0  0
 10 11  3  0  0  0
 11  9  1  0  0  0
  9  3  1  0  0  0
  3  4  1  0  0  0
  4  5  1  0  0  0
  5  6  1  0  0  0
  6  2  1  0  0  0
  2  1  1  0  0  0
  1 18  1  0  0  0
 18 19  1  0  0  0
 19 20  1  0  0  0
 20 21  2  0  0  0
 21 22  1  0  0  0
 22 26  1  0  0  0
 26 27  1  0  0  0
 26 28  1  0  0  0
 26 29  1  0  0  0
 22 23  2  0  0  0
 23 24  1  0  0  0
 24 30  1  0  0  0
 30 31  1  0  0  0
 30 32  1  0  0  0
 30 33  1  0  0  0
 24 25  2  0  0  0
  2 12  1  0  0  0
 12 13  2  0  0  0
 13 14  1  0  0  0
 14 15  2  0  0  0
 15 16  1  0  0  0
 16 17  2  0  0  0
  6  7  1  0  0  0
  7  8  1  0  0  0
  8  3  1  0  0  0
 25 20  1  0  0  0
 17 12  1  0  0  0
M  END
> <minimizedAffinity>
-7.52586

> <CNNscore>
0.2781245112

> <CNNaffinity>
6.4281477928

> <CNN_VS>
1.7878254652

> <CNNaffinity_variance>
0.1451140344

$$$$
[H]c1c([H])c([H])c(C([H])(N2C([H])([H])C([H])([H])N(C([H])([H])C#N)C([H])([H])C2([H])[H])C([H])([H])OC([H])([H])c2c([H])c(C(F)(F)F)c([H])c(C(F)(F)F)c2[H])c([H])c1[H]


 33 35  0  0  0  0  0  0  0  0999 V2000
   -0.0786  -52.8188  -23.8770 C   0  0  0  0  0  0  0  0  0  0  0  0
    0.7870  -53.0396  -25.0713 C   0  0  0  0  0  0  0  0  0  0  0  0
    4.2094  -50.6538  -24.5170 N   0  0  0  0  0  0  0  0  0  0  0  0
    4.3709  -52.0008  -24.9295 C   0  0  0  0  0  0  0  0  0  0  0  0
    3.1619  -52.8521  -24.5514 C   0  0  0  0  0  0  0  0  0  0  0  0
    1.9594  -52.2647  -25.0126 N   0  0  0  0  0  0  0  0  0  0  0  0
    1.7791  -50.8697  -24.8129 C   0  0  0  0  0  0  0  0  0  0  0  0
    2.9244  -50.3392  -23.9930 C   0  0  0  0  0  0  0  0  0  0  0  0
    5.3263  -49.9921  -23.9543 C   0  0  0  0  0  0  0  0  0  0  0  0
    5.7653  -50.9321  -21.5161 N   0  0  0  0  0  0  0  0  0  0  0  0
    5.5695  -50.5243  -22.6040 C   0  0  0  0  0  0  0  0  0  0  0  0
   -0.0245  -52.8735  -26.3030 C   0  0  0  0  0  0  0  0  0  0  0  0
   -1.3273  -52.4266  -26.3134 C   0  0  0  0  0  0  0  0  0  0  0  0
   -2.0607  -52.3231  -27.4798 C   0  0  0  0  0  0  0  0  0  0  0  0
   -1.5197  -52.6649  -28.6967 C   0  0  0  0  0  0  0  0  0  0  0  0
   -0.2113  -53.1132  -28.7071 C   0  0  0  0  0  0  0  0  0  0  0  0
    0.5096  -53.2123  -27.5306 C   0  0  0  0  0  0  0  0  0  0  0  0
    0.3844  -53.3840  -22.6916 O   0  0  0  0  0  0  0  0  0  0  0  0
   -0.6119  -53.0228  -21.7490 C   0  0  0  0  0  0  0  0  0  0  0  0
   -0.1673  -52.0722  -20.7493 C   0  0  0  0  0  0  0  0  0  0  0  0
   -0.4505  -52.3048  -19.3852 C   0  0  0  0  0  0  0  0  0  0  0  0
   -0.0583  -51.4562  -18.3956 C   0  0  0  0  0  0  0  0  0  0  0  0
    0.6433  -50.3213  -18.7191 C   0  0  0  0  0  0  0  0  0  0  0  0
    0.9272  -50.0789  -20.0422 C   0  0  0  0  0  0  0  0  0  0  0  0
    0.5325  -50.9398  -21.0688 C   0  0  0  0  0  0  0  0  0  0  0  0
   -0.3592  -51.7006  -16.9529 C   0  0  0  0  0  0  0  0  0  0  0  0
    0.7615  -51.7148  -16.1949 F   0  0  0  0  0  0  0  0  0  0  0  0
   -1.0517  -52.9024  -16.9073 F   0  0  0  0  0  0  0  0  0  0  0  0
   -1.2637  -50.7249  -16.5638 F   0  0  0  0  0  0  0  0  0  0  0  0
    1.7045  -48.8331  -20.3376 C   0  0  0  0  0  0  0  0  0  0  0  0
    2.9078  -49.1632  -20.9750 F   0  0  0  0  0  0  0  0  0  0  0  0
    0.9497  -48.0911  -21.2085 F   0  0  0  0  0  0  0  0  0  0  0  0
    2.0208  -48.1134  -19.2043 F   0  0  0  0  0  0  0  0  0  0  0  0
 10 11  3  0  0  0
 11  9  1  0  0  0
  9  3  1  0  0  0
  3  4  1  0  0  0
  4  5  1  0  0  0
  5  6  1  0  0  0
  6  2  1  0  0  0
  2  1  1  0  0  0
  1 18  1  0  0  0
 18 19  1  0  0  0
 19 20  1  0  0  0
 20 21  2  0  0  0
 21 22  1  0  0  0
 22 26  1  0  0  0
 26 27  1  0  0  0
 26 28  1  0  0  0
 26 29  1  0  0  0
 22 23  2  0  0  0
 23 24  1  0  0  0
 24 30  1  0  0  0
 30 31  1  0  0  0
 30 32  1  0  0  0
 30 33  1  0  0  0
 24 25  2  0  0  0
  2 12  1  0  0  0
 12 13  2  0  0  0
 13 14  1  0  0  0
 14 15  2  0  0  0
 15 16  1  0  0  0
 16 17  2  0  0  0
  6  7  1  0  0  0
  7  8  1  0  0  0
  8  3  1  0  0  0
 25 20  1  0  0  0
 17 12  1  0  0  0
M  END
> <minimizedAffinity>
-7.59572

> <CNNscore>
0.2550422251

> <CNNaffinity>
6.3499245644

> <CNN_VS>
1.6194988489

> <CNNaffinity_variance>
0.2624958158

$$$$
[H]c1c([H])c([H])c(C([H])(N2C([H])([H])C([H])([H])N(C([H])([H])C#N)C([H])([H])C2([H])[H])C([H])([H])OC([H])([H])c2c([H])c(C(F)(F)F)c([H])c(C(F)(F)F)c2[H])c([H])c1[H]


 33 35  0  0  0  0  0  0  0  0999 V2000
   -0.0950  -52.8972  -23.8619 C   0  0  0  0  0  0  0  0  0  0  0  0
    0.7397  -53.1057  -25.0801 C   0  0  0  0  0  0  0  0  0  0  0  0
    4.1948  -50.7589  -24.5639 N   0  0  0  0  0  0  0  0  0  0  0  0
    4.3390  -52.1262  -24.9109 C   0  0  0  0  0  0  0  0  0  0  0  0
    3.1067  -52.9373  -24.5197 C   0  0  0  0  0  0  0  0  0  0  0  0
    1.9250  -52.3502  -25.0323 N   0  0  0  0  0  0  0  0  0  0  0  0
    1.7672  -50.9445  -24.9004 C   0  0  0  0  0  0  0  0  0  0  0  0
    2.9056  -50.3975  -24.0817 C   0  0  0  0  0  0  0  0  0  0  0  0
    5.3125  -50.0922  -24.0087 C   0  0  0  0  0  0  0  0  0  0  0  0
    5.6780  -50.9360  -21.5236 N   0  0  0  0  0  0  0  0  0  0  0  0
    5.5081  -50.5536  -22.6250 C   0  0  0  0  0  0  0  0  0  0  0  0
   -0.0970  -52.9013  -26.2891 C   0  0  0  0  0  0  0  0  0  0  0  0
   -1.3823  -52.4069  -26.2625 C   0  0  0  0  0  0  0  0  0  0  0  0
   -2.1415  -52.2682  -27.4086 C   0  0  0  0  0  0  0  0  0  0  0  0
   -1.6453  -52.6210  -28.6413 C   0  0  0  0  0  0  0  0  0  0  0  0
   -0.3550  -53.1170  -28.6888 C   0  0  0  0  0  0  0  0  0  0  0  0
    0.3921  -53.2508  -27.5323 C   0  0  0  0  0  0  0  0  0  0  0  0
    0.4694  -53.3407  -22.6686 O   0  0  0  0  0  0  0  0  0  0  0  0
   -0.5338  -53.0525  -21.7083 C   0  0  0  0  0  0  0  0  0  0  0  0
   -0.1253  -52.1085  -20.6872 C   0  0  0  0  0  0  0  0  0  0  0  0
    0.5525  -50.9254  -21.0564 C   0  0  0  0  0  0  0  0  0  0  0  0
    0.9593  -49.9951  -20.1495 C   0  0  0  0  0  0  0  0  0  0  0  0
    0.7083  -50.1991  -18.8153 C   0  0  0  0  0  0  0  0  0  0  0  0
    0.0500  -51.3455  -18.4380 C   0  0  0  0  0  0  0  0  0  0  0  0
   -0.3742  -52.3091  -19.3560 C   0  0  0  0  0  0  0  0  0  0  0  0
    1.6778  -48.7448  -20.5391 C   0  0  0  0  0  0  0  0  0  0  0  0
    0.9564  -47.9910  -21.4007 F   0  0  0  0  0  0  0  0  0  0  0  0
    2.8917  -49.1544  -21.0729 F   0  0  0  0  0  0  0  0  0  0  0  0
    1.9845  -48.0786  -19.3629 F   0  0  0  0  0  0  0  0  0  0  0  0
   -0.2079  -51.5119  -16.9721 C   0  0  0  0  0  0  0  0  0  0  0  0
   -0.7472  -52.7814  -16.7250 F   0  0  0  0  0  0  0  0  0  0  0  0
    1.0078  -51.4350  -16.3436 F   0  0  0  0  0  0  0  0  0  0  0  0
   -1.0945  -50.5815  -16.4715 F   0  0  0  0  0  0  0  0  0  0  0  0
 10 11  3  0  0  0
 11  9  1  0  0  0
  9  3  1  0  0  0
  3  4  1  0  0  0
  4  5  1  0  0  0
  5  6  1  0  0  0
  6  2  1  0  0  0
  2  1  1  0  0  0
  1 18  1  0  0  0
 18 19  1  0  0  0
 19 20  1  0  0  0
 20 21  2  0  0  0
 21 22  1  0  0  0
 22 26  1  0  0  0
 26 27  1  0  0  0
 26 28  1  0  0  0
 26 29  1  0  0  0
 22 23  2  0  0  0
 23 24  1  0  0  0
 24 30  1  0  0  0
 30 31  1  0  0  0
 30 32  1  0  0  0
 30 33  1  0  0  0
 24 25  2  0  0  0
  2 12  1  0  0  0
 12 13  2  0  0  0
 13 14  1  0  0  0
 14 15  2  0  0  0
 15 16  1  0  0  0
 16 17  2  0  0  0
  6  7  1  0  0  0
  7  8  1  0  0  0
  8  3  1  0  0  0
 25 20  1  0  0  0
 17 12  1  0  0  0
M  END
> <minimizedAffinity>
-7.65071

> <CNNscore>
0.2374388725

> <CNNaffinity>
6.3474082947

> <CNN_VS>
1.5071214437

> <CNNaffinity_variance>
0.2466202974

$$$$
[H]c1c([H])c([H])c(C([H])(N2C([H])([H])C([H])([H])N(C([H])([H])C#N)C([H])([H])C2([H])[H])C([H])([H])OC([H])([H])c2c([H])c(C(F)(F)F)c([H])c(C(F)(F)F)c2[H])c([H])c1[H]


 33 35  0  0  0  0  0  0  0  0999 V2000
   -0.0366  -53.5070  -22.5468 C   0  0  0  0  0  0  0  0  0  0  0  0
    0.0596  -52.2238  -23.3007 C   0  0  0  0  0  0  0  0  0  0  0  0
   -0.0744  -52.7590  -27.4730 N   0  0  0  0  0  0  0  0  0  0  0  0
   -0.5260  -53.8072  -26.6314 C   0  0  0  0  0  0  0  0  0  0  0  0
    0.0829  -53.7076  -25.2354 C   0  0  0  0  0  0  0  0  0  0  0  0
   -0.1152  -52.4197  -24.6825 N   0  0  0  0  0  0  0  0  0  0  0  0
    0.1326  -51.2927  -25.5114 C   0  0  0  0  0  0  0  0  0  0  0  0
    0.7057  -51.7633  -26.8211 C   0  0  0  0  0  0  0  0  0  0  0  0
    0.2543  -53.0761  -28.8122 C   0  0  0  0  0  0  0  0  0  0  0  0
    2.4371  -54.5781  -28.8246 N   0  0  0  0  0  0  0  0  0  0  0  0
    1.4719  -53.9026  -28.8248 C   0  0  0  0  0  0  0  0  0  0  0  0
    1.3056  -51.5177  -22.9107 C   0  0  0  0  0  0  0  0  0  0  0  0
    1.3559  -50.1934  -22.5353 C   0  0  0  0  0  0  0  0  0  0  0  0
    2.5436  -49.5633  -22.2166 C   0  0  0  0  0  0  0  0  0  0  0  0
    3.7427  -50.2346  -22.2601 C   0  0  0  0  0  0  0  0  0  0  0  0
    3.7122  -51.5664  -22.6321 C   0  0  0  0  0  0  0  0  0  0  0  0
    2.5151  -52.1829  -22.9493 C   0  0  0  0  0  0  0  0  0  0  0  0
   -0.8627  -53.4803  -21.4260 O   0  0  0  0  0  0  0  0  0  0  0  0
    0.0290  -53.7589  -20.3589 C   0  0  0  0  0  0  0  0  0  0  0  0
    0.1211  -52.7030  -19.3703 C   0  0  0  0  0  0  0  0  0  0  0  0
   -0.7697  -52.6888  -18.2742 C   0  0  0  0  0  0  0  0  0  0  0  0
   -0.7348  -51.7302  -17.3081 C   0  0  0  0  0  0  0  0  0  0  0  0
    0.1995  -50.7273  -17.3866 C   0  0  0  0  0  0  0  0  0  0  0  0
    1.0742  -50.7254  -18.4472 C   0  0  0  0  0  0  0  0  0  0  0  0
    1.0516  -51.7018  -19.4459 C   0  0  0  0  0  0  0  0  0  0  0  0
   -1.6778  -51.7135  -16.1497 C   0  0  0  0  0  0  0  0  0  0  0  0
   -2.7638  -52.4910  -16.3666 F   0  0  0  0  0  0  0  0  0  0  0  0
   -2.0057  -50.3805  -15.9455 F   0  0  0  0  0  0  0  0  0  0  0  0
   -0.9483  -52.1011  -15.0365 F   0  0  0  0  0  0  0  0  0  0  0  0
    2.0795  -49.6156  -18.4775 C   0  0  0  0  0  0  0  0  0  0  0  0
    2.3016  -49.1394  -17.1786 F   0  0  0  0  0  0  0  0  0  0  0  0
    3.2518  -50.1541  -18.9408 F   0  0  0  0  0  0  0  0  0  0  0  0
    1.6772  -48.5444  -19.2475 F   0  0  0  0  0  0  0  0  0  0  0  0
 10 11  3  0  0  0
 11  9  1  0  0  0
  9  3  1  0  0  0
  3  4  1  0  0  0
  4  5  1  0  0  0
  5  6  1  0  0  0
  6  2  1  0  0  0
  2  1  1  0  0  0
  1 18  1  0  0  0
 18 19  1  0  0  0
 19 20  1  0  0  0
 20 21  2  0  0  0
 21 22  1  0  0  0
 22 26  1  0  0  0
 26 27  1  0  0  0
 26 28  1  0  0  0
 26 29  1  0  0  0
 22 23  2  0  0  0
 23 24  1  0  0  0
 24 30  1  0  0  0
 30 31  1  0  0  0
 30 32  1  0  0  0
 30 33  1  0  0  0
 24 25  2  0  0  0
  2 12  1  0  0  0
 12 13  2  0  0  0
 13 14  1  0  0  0
 14 15  2  0  0  0
 15 16  1  0  0  0
 16 17  2  0  0  0
  6  7  1  0  0  0
  7  8  1  0  0  0
  8  3  1  0  0  0
 25 20  1  0  0  0
 17 12  1  0  0  0
M  END
> <minimizedAffinity>
-7.15090

> <CNNscore>
0.2311269790

> <CNNaffinity>
6.5580930710

> <CNN_VS>
1.5157521963

> <CNNaffinity_variance>
0.1854052842

$$$$
[H]c1c([H])c([H])c(C([H])(N2C([H])([H])C([H])([H])N(C([H])([H])C#N)C([H])([H])C2([H])[H])C([H])([H])OC([H])([H])c2c([H])c(C(F)(F)F)c([H])c(C(F)(F)F)c2[H])c([H])c1[H]


 33 35  0  0  0  0  0  0  0  0999 V2000
   -0.1300  -53.0473  -24.0965 C   0  0  0  0  0  0  0  0  0  0  0  0
    0.8873  -53.1809  -25.1788 C   0  0  0  0  0  0  0  0  0  0  0  0
    4.0617  -50.6142  -24.1555 N   0  0  0  0  0  0  0  0  0  0  0  0
    4.3574  -51.9233  -24.6134 C   0  0  0  0  0  0  0  0  0  0  0  0
    3.1786  -52.8701  -24.4053 C   0  0  0  0  0  0  0  0  0  0  0  0
    1.9908  -52.3367  -24.9606 N   0  0  0  0  0  0  0  0  0  0  0  0
    1.6946  -50.9694  -24.7136 C   0  0  0  0  0  0  0  0  0  0  0  0
    2.7115  -50.4124  -23.7539 C   0  0  0  0  0  0  0  0  0  0  0  0
    5.0672  -49.9142  -23.4478 C   0  0  0  0  0  0  0  0  0  0  0  0
    4.6758  -47.3083  -23.7257 N   0  0  0  0  0  0  0  0  0  0  0  0
    4.8519  -48.4677  -23.6128 C   0  0  0  0  0  0  0  0  0  0  0  0
    0.2229  -53.0317  -26.4978 C   0  0  0  0  0  0  0  0  0  0  0  0
    0.8548  -53.2279  -27.7058 C   0  0  0  0  0  0  0  0  0  0  0  0
    0.2094  -53.0407  -28.9131 C   0  0  0  0  0  0  0  0  0  0  0  0
   -1.1064  -52.6454  -28.9662 C   0  0  0  0  0  0  0  0  0  0  0  0
   -1.7590  -52.4460  -27.7631 C   0  0  0  0  0  0  0  0  0  0  0  0
   -1.0988  -52.6366  -26.5625 C   0  0  0  0  0  0  0  0  0  0  0  0
    0.1714  -53.7092  -22.9089 O   0  0  0  0  0  0  0  0  0  0  0  0
   -0.6962  -53.0985  -21.9678 C   0  0  0  0  0  0  0  0  0  0  0  0
   -0.0193  -52.5161  -20.8261 C   0  0  0  0  0  0  0  0  0  0  0  0
    1.3069  -52.0488  -20.9603 C   0  0  0  0  0  0  0  0  0  0  0  0
    1.9984  -51.4871  -19.9309 C   0  0  0  0  0  0  0  0  0  0  0  0
    1.3967  -51.3614  -18.7033 C   0  0  0  0  0  0  0  0  0  0  0  0
    0.1062  -51.8115  -18.5547 C   0  0  0  0  0  0  0  0  0  0  0  0
   -0.6167  -52.3894  -19.6009 C   0  0  0  0  0  0  0  0  0  0  0  0
    3.4016  -50.9945  -20.0716 C   0  0  0  0  0  0  0  0  0  0  0  0
    3.4504  -49.7200  -20.5238 F   0  0  0  0  0  0  0  0  0  0  0  0
    4.0352  -51.8891  -20.9227 F   0  0  0  0  0  0  0  0  0  0  0  0
    4.0056  -51.1533  -18.8341 F   0  0  0  0  0  0  0  0  0  0  0  0
   -0.5055  -51.6395  -17.1984 C   0  0  0  0  0  0  0  0  0  0  0  0
   -0.7358  -50.2800  -16.9494 F   0  0  0  0  0  0  0  0  0  0  0  0
   -1.7172  -52.2797  -17.2252 F   0  0  0  0  0  0  0  0  0  0  0  0
    0.2949  -52.1164  -16.1814 F   0  0  0  0  0  0  0  0  0  0  0  0
 10 11  3  0  0  0
 11  9  1  0  0  0
  9  3  1  0  0  0
  3  4  1  0  0  0
  4  5  1  0  0  0
  5  6  1  0  0  0
  6  2  1  0  0  0
  2  1  1  0  0  0
  1 18  1  0  0  0
 18 19  1  0  0  0
 19 20  1  0  0  0
 20 21  2  0  0  0
 21 22  1  0  0  0
 22 26  1  0  0  0
 26 27  1  0  0  0
 26 28  1  0  0  0
 26 29  1  0  0  0
 22 23  2  0  0  0
 23 24  1  0  0  0
 24 30  1  0  0  0
 30 31  1  0  0  0
 30 32  1  0  0  0
 30 33  1  0  0  0
 24 25  2  0  0  0
  2 12  1  0  0  0
 12 13  2  0  0  0
 13 14  1  0  0  0
 14 15  2  0  0  0
 15 16  1  0  0  0
 16 17  2  0  0  0
  6  7  1  0  0  0
  7  8  1  0  0  0
  8  3  1  0  0  0
 25 20  1  0  0  0
 17 12  1  0  0  0
M  END
> <minimizedAffinity>
-7.32727

> <CNNscore>
0.2092243880

> <CNNaffinity>
6.3932929039

> <CNN_VS>
1.3376327753

> <CNNaffinity_variance>
0.1858262122

$$$$
[H]c1c([H])c([H])c(C([H])(N2C([H])([H])C([H])([H])N(C([H])([H])C#N)C([H])([H])C2([H])[H])C([H])([H])OC([H])([H])c2c([H])c(C(F)(F)F)c([H])c(C(F)(F)F)c2[H])c([H])c1[H]


 33 35  0  0  0  0  0  0  0  0999 V2000
   -0.4866  -53.3980  -21.9718 C   0  0  0  0  0  0  0  0  0  0  0  0
   -0.0664  -52.1778  -22.7194 C   0  0  0  0  0  0  0  0  0  0  0  0
    1.1604  -53.1244  -26.6324 N   0  0  0  0  0  0  0  0  0  0  0  0
    1.6872  -51.9647  -26.0092 C   0  0  0  0  0  0  0  0  0  0  0  0
    0.7741  -51.4631  -24.8939 C   0  0  0  0  0  0  0  0  0  0  0  0
    0.4666  -52.5000  -23.9805 N   0  0  0  0  0  0  0  0  0  0  0  0
    0.1043  -53.7682  -24.5085 C   0  0  0  0  0  0  0  0  0  0  0  0
    0.0024  -53.6653  -26.0066 C   0  0  0  0  0  0  0  0  0  0  0  0
    1.2493  -53.2210  -28.0412 C   0  0  0  0  0  0  0  0  0  0  0  0
   -1.0409  -52.4397  -29.1209 N   0  0  0  0  0  0  0  0  0  0  0  0
   -0.0281  -52.7926  -28.6332 C   0  0  0  0  0  0  0  0  0  0  0  0
    0.8071  -51.3477  -21.8526 C   0  0  0  0  0  0  0  0  0  0  0  0
    2.0543  -51.7369  -21.4167 C   0  0  0  0  0  0  0  0  0  0  0  0
    2.8199  -50.9495  -20.5782 C   0  0  0  0  0  0  0  0  0  0  0  0
    2.3682  -49.7289  -20.1347 C   0  0  0  0  0  0  0  0  0  0  0  0
    1.1188  -49.3194  -20.5640 C   0  0  0  0  0  0  0  0  0  0  0  0
    0.3640  -50.1196  -21.4027 C   0  0  0  0  0  0  0  0  0  0  0  0
   -1.4574  -53.1943  -20.9944 O   0  0  0  0  0  0  0  0  0  0  0  0
   -0.8610  -53.7356  -19.8270 C   0  0  0  0  0  0  0  0  0  0  0  0
   -1.0033  -52.9054  -18.6475 C   0  0  0  0  0  0  0  0  0  0  0  0
   -2.1598  -53.0196  -17.8446 C   0  0  0  0  0  0  0  0  0  0  0  0
   -2.3545  -52.2746  -16.7219 C   0  0  0  0  0  0  0  0  0  0  0  0
   -1.3963  -51.3690  -16.3389 C   0  0  0  0  0  0  0  0  0  0  0  0
   -0.2644  -51.2444  -17.1091 C   0  0  0  0  0  0  0  0  0  0  0  0
   -0.0496  -52.0016  -18.2630 C   0  0  0  0  0  0  0  0  0  0  0  0
   -3.5782  -52.3935  -15.8735 C   0  0  0  0  0  0  0  0  0  0  0  0
   -4.2409  -53.5521  -16.0961 F   0  0  0  0  0  0  0  0  0  0  0  0
   -4.3475  -51.2737  -16.1566 F   0  0  0  0  0  0  0  0  0  0  0  0
   -3.1662  -52.2498  -14.5577 F   0  0  0  0  0  0  0  0  0  0  0  0
    0.7529  -50.2505  -16.6393 C   0  0  0  0  0  0  0  0  0  0  0  0
    2.0388  -50.6863  -16.9855 F   0  0  0  0  0  0  0  0  0  0  0  0
    0.5040  -49.0807  -17.3090 F   0  0  0  0  0  0  0  0  0  0  0  0
    0.7335  -50.0638  -15.2729 F   0  0  0  0  0  0  0  0  0  0  0  0
 10 11  3  0  0  0
 11  9  1  0  0  0
  9  3  1  0  0  0
  3  4  1  0  0  0
  4  5  1  0  0  0
  5  6  1  0  0  0
  6  2  1  0  0  0
  2  1  1  0  0  0
  1 18  1  0  0  0
 18 19  1  0  0  0
 19 20  1  0  0  0
 20 21  2  0  0  0
 21 22  1  0  0  0
 22 26  1  0  0  0
 26 27  1  0  0  0
 26 28  1  0  0  0
 26 29  1  0  0  0
 22 23  2  0  0  0
 23 24  1  0  0  0
 24 30  1  0  0  0
 30 31  1  0  0  0
 30 32  1  0  0  0
 30 33  1  0  0  0
 24 25  2  0  0  0
  2 12  1  0  0  0
 12 13  2  0  0  0
 13 14  1  0  0  0
 14 15  2  0  0  0
 15 16  1  0  0  0
 16 17  2  0  0  0
  6  7  1  0  0  0
  7  8  1  0  0  0
  8  3  1  0  0  0
 25 20  1  0  0  0
 17 12  1  0  0  0
M  END
> <minimizedAffinity>
-7.17196

> <CNNscore>
0.1680576503

> <CNNaffinity>
6.1506714821

> <CNN_VS>
1.0336674452

> <CNNaffinity_variance>
0.1337354034

$$$$
[H]c1c([H])c([H])c(C([H])(N2C([H])([H])C([H])([H])N(C([H])([H])C#N)C([H])([H])C2([H])[H])C([H])([H])OC([H])([H])c2c([H])c(C(F)(F)F)c([H])c(C(F)(F)F)c2[H])c([H])c1[H]


 33 35  0  0  0  0  0  0  0  0999 V2000
    0.0389  -53.0469  -20.8509 C   0  0  0  0  0  0  0  0  0  0  0  0
   -0.0261  -51.7549  -21.5931 C   0  0  0  0  0  0  0  0  0  0  0  0
    0.8245  -52.6352  -25.6197 N   0  0  0  0  0  0  0  0  0  0  0  0
   -0.5266  -52.4634  -25.2250 C   0  0  0  0  0  0  0  0  0  0  0  0
   -0.7100  -52.7096  -23.7299 C   0  0  0  0  0  0  0  0  0  0  0  0
    0.1991  -51.9355  -22.9696 N   0  0  0  0  0  0  0  0  0  0  0  0
    1.5542  -51.8905  -23.3940 C   0  0  0  0  0  0  0  0  0  0  0  0
    1.7388  -52.8385  -24.5484 C   0  0  0  0  0  0  0  0  0  0  0  0
    1.0812  -53.3093  -26.8369 C   0  0  0  0  0  0  0  0  0  0  0  0
    3.1096  -52.1225  -28.0609 N   0  0  0  0  0  0  0  0  0  0  0  0
    2.2012  -52.6478  -27.5251 C   0  0  0  0  0  0  0  0  0  0  0  0
    0.8556  -50.7626  -20.9288 C   0  0  0  0  0  0  0  0  0  0  0  0
    0.7040  -49.3984  -21.0430 C   0  0  0  0  0  0  0  0  0  0  0  0
    1.5711  -48.5082  -20.4389 C   0  0  0  0  0  0  0  0  0  0  0  0
    2.6367  -48.9464  -19.6886 C   0  0  0  0  0  0  0  0  0  0  0  0
    2.8039  -50.3133  -19.5599 C   0  0  0  0  0  0  0  0  0  0  0  0
    1.9278  -51.1918  -20.1717 C   0  0  0  0  0  0  0  0  0  0  0  0
   -1.0647  -53.3317  -20.0507 O   0  0  0  0  0  0  0  0  0  0  0  0
   -0.4984  -53.4848  -18.7595 C   0  0  0  0  0  0  0  0  0  0  0  0
   -1.0839  -52.6272  -17.7483 C   0  0  0  0  0  0  0  0  0  0  0  0
   -0.4155  -51.4457  -17.3578 C   0  0  0  0  0  0  0  0  0  0  0  0
   -0.9115  -50.5940  -16.4188 C   0  0  0  0  0  0  0  0  0  0  0  0
   -2.1111  -50.8798  -15.8155 C   0  0  0  0  0  0  0  0  0  0  0  0
   -2.7751  -52.0260  -16.1832 C   0  0  0  0  0  0  0  0  0  0  0  0
   -2.2800  -52.9096  -17.1451 C   0  0  0  0  0  0  0  0  0  0  0  0
   -0.2041  -49.3454  -16.0040 C   0  0  0  0  0  0  0  0  0  0  0  0
    0.4549  -49.4993  -14.8323 F   0  0  0  0  0  0  0  0  0  0  0  0
   -1.1780  -48.3583  -15.9450 F   0  0  0  0  0  0  0  0  0  0  0  0
    0.6314  -48.9937  -17.0528 F   0  0  0  0  0  0  0  0  0  0  0  0
   -4.0841  -52.2831  -15.5022 C   0  0  0  0  0  0  0  0  0  0  0  0
   -3.8780  -52.4652  -14.1283 F   0  0  0  0  0  0  0  0  0  0  0  0
   -4.8487  -51.1585  -15.6737 F   0  0  0  0  0  0  0  0  0  0  0  0
   -4.7270  -53.4075  -15.9765 F   0  0  0  0  0  0  0  0  0  0  0  0
 10 11  3  0  0  0
 11  9  1  0  0  0
  9  3  1  0  0  0
  3  4  1  0  0  0
  4  5  1  0  0  0
  5  6  1  0  0  0
  6  2  1  0  0  0
  2  1  1  0  0  0
  1 18  1  0  0  0
 18 19  1  0  0  0
 19 20  1  0  0  0
 20 21  2  0  0  0
 21 22  1  0  0  0
 22 26  1  0  0  0
 26 27  1  0  0  0
 26 28  1  0  0  0
 26 29  1  0  0  0
 22 23  2  0  0  0
 23 24  1  0  0  0
 24 30  1  0  0  0
 30 31  1  0  0  0
 30 32  1  0  0  0
 30 33  1  0  0  0
 24 25  2  0  0  0
  2 12  1  0  0  0
 12 13  2  0  0  0
 13 14  1  0  0  0
 14 15  2  0  0  0
 15 16  1  0  0  0
 16 17  2  0  0  0
  6  7  1  0  0  0
  7  8  1  0  0  0
  8  3  1  0  0  0
 25 20  1  0  0  0
 17 12  1  0  0  0
M  END
> <minimizedAffinity>
-6.95408

> <CNNscore>
0.1680189371

> <CNNaffinity>
6.0623316765

> <CNN_VS>
1.0185865164

> <CNNaffinity_variance>
0.1566182375

$$$$
[H]c1c([H])c([H])c(C([H])(N2C([H])([H])C([H])([H])N(C([H])([H])C#N)C([H])([H])C2([H])[H])C([H])([H])OC([H])([H])c2c([H])c(C(F)(F)F)c([H])c(C(F)(F)F)c2[H])c([H])c1[H]


 33 35  0  0  0  0  0  0  0  0999 V2000
   -0.1249  -53.4939  -22.2692 C   0  0  0  0  0  0  0  0  0  0  0  0
   -0.0357  -52.2943  -23.1509 C   0  0  0  0  0  0  0  0  0  0  0  0
   -0.2860  -53.1007  -27.2739 N   0  0  0  0  0  0  0  0  0  0  0  0
   -0.2256  -54.1868  -26.3642 C   0  0  0  0  0  0  0  0  0  0  0  0
    0.4068  -53.7735  -25.0381 C   0  0  0  0  0  0  0  0  0  0  0  0
   -0.2310  -52.6286  -24.5030 N   0  0  0  0  0  0  0  0  0  0  0  0
   -0.5081  -51.5475  -25.3820 C   0  0  0  0  0  0  0  0  0  0  0  0
    0.0955  -51.8428  -26.7288 C   0  0  0  0  0  0  0  0  0  0  0  0
    0.0313  -53.3504  -28.6300 C   0  0  0  0  0  0  0  0  0  0  0  0
    2.4298  -54.4706  -28.7461 N   0  0  0  0  0  0  0  0  0  0  0  0
    1.3643  -53.9695  -28.7049 C   0  0  0  0  0  0  0  0  0  0  0  0
    1.2179  -51.5579  -22.8521 C   0  0  0  0  0  0  0  0  0  0  0  0
    2.4712  -52.1288  -22.8739 C   0  0  0  0  0  0  0  0  0  0  0  0
    3.6103  -51.4163  -22.5513 C   0  0  0  0  0  0  0  0  0  0  0  0
    3.5459  -50.0915  -22.1894 C   0  0  0  0  0  0  0  0  0  0  0  0
    2.2961  -49.4996  -22.1644 C   0  0  0  0  0  0  0  0  0  0  0  0
    1.1648  -50.2265  -22.4891 C   0  0  0  0  0  0  0  0  0  0  0  0
   -0.9883  -53.3738  -21.1833 O   0  0  0  0  0  0  0  0  0  0  0  0
   -0.1565  -53.6688  -20.0731 C   0  0  0  0  0  0  0  0  0  0  0  0
   -0.1320  -52.6349  -19.0576 C   0  0  0  0  0  0  0  0  0  0  0  0
    0.7834  -51.5648  -19.1679 C   0  0  0  0  0  0  0  0  0  0  0  0
    0.8557  -50.5592  -18.2532 C   0  0  0  0  0  0  0  0  0  0  0  0
    0.0105  -50.5695  -17.1713 C   0  0  0  0  0  0  0  0  0  0  0  0
   -0.8865  -51.6039  -17.0479 C   0  0  0  0  0  0  0  0  0  0  0  0
   -0.9735  -52.6425  -17.9778 C   0  0  0  0  0  0  0  0  0  0  0  0
    1.8248  -49.4282  -18.3683 C   0  0  0  0  0  0  0  0  0  0  0  0
    2.0403  -48.8199  -17.1789 F   0  0  0  0  0  0  0  0  0  0  0  0
    1.2953  -48.5691  -19.3209 F   0  0  0  0  0  0  0  0  0  0  0  0
    2.9813  -49.9499  -18.9268 F   0  0  0  0  0  0  0  0  0  0  0  0
   -1.7920  -51.5595  -15.8556 C   0  0  0  0  0  0  0  0  0  0  0  0
   -1.0868  -51.9458  -14.7081 F   0  0  0  0  0  0  0  0  0  0  0  0
   -2.1792  -50.2539  -15.6993 F   0  0  0  0  0  0  0  0  0  0  0  0
   -2.8807  -52.3980  -15.9738 F   0  0  0  0  0  0  0  0  0  0  0  0
 10 11  3  0  0  0
 11  9  1  0  0  0
  9  3  1  0  0  0
  3  4  1  0  0  0
  4  5  1  0  0  0
  5  6  1  0  0  0
  6  2  1  0  0  0
  2  1  1  0  0  0
  1 18  1  0  0  0
 18 19  1  0  0  0
 19 20  1  0  0  0
 20 21  2  0  0  0
 21 22  1  0  0  0
 22 26  1  0  0  0
 26 27  1  0  0  0
 26 28  1  0  0  0
 26 29  1  0  0  0
 22 23  2  0  0  0
 23 24  1  0  0  0
 24 30  1  0  0  0
 30 31  1  0  0  0
 30 32  1  0  0  0
 30 33  1  0  0  0
 24 25  2  0  0  0
  2 12  1  0  0  0
 12 13  2  0  0  0
 13 14  1  0  0  0
 14 15  2  0  0  0
 15 16  1  0  0  0
 16 17  2  0  0  0
  6  7  1  0  0  0
  7  8  1  0  0  0
  8  3  1  0  0  0
 25 20  1  0  0  0
 17 12  1  0  0  0
M  END
> <minimizedAffinity>
-7.27575

> <CNNscore>
0.1676598936

> <CNNaffinity>
6.3837609291

> <CNN_VS>
1.0703006983

> <CNNaffinity_variance>
0.1238692775

$$$$
[H]c1c([H])c([H])c(C([H])(N2C([H])([H])C([H])([H])N(C([H])([H])C#N)C([H])([H])C2([H])[H])C([H])([H])OC([H])([H])c2c([H])c(C(F)(F)F)c([H])c(C(F)(F)F)c2[H])c([H])c1[H]


 33 35  0  0  0  0  0  0  0  0999 V2000
    0.1575  -52.8532  -21.3318 C   0  0  0  0  0  0  0  0  0  0  0  0
    0.1876  -51.4694  -21.8873 C   0  0  0  0  0  0  0  0  0  0  0  0
    1.2906  -51.7794  -25.9370 N   0  0  0  0  0  0  0  0  0  0  0  0
   -0.0796  -51.8875  -25.5883 C   0  0  0  0  0  0  0  0  0  0  0  0
   -0.2565  -52.3104  -24.1325 C   0  0  0  0  0  0  0  0  0  0  0  0
    0.4787  -51.4690  -23.2633 N   0  0  0  0  0  0  0  0  0  0  0  0
    1.8149  -51.1449  -23.6211 C   0  0  0  0  0  0  0  0  0  0  0  0
    2.1972  -51.9255  -24.8498 C   0  0  0  0  0  0  0  0  0  0  0  0
    1.6966  -52.2728  -27.1994 C   0  0  0  0  0  0  0  0  0  0  0  0
    0.5891  -54.6495  -27.5817 N   0  0  0  0  0  0  0  0  0  0  0  0
    1.0912  -53.5968  -27.4146 C   0  0  0  0  0  0  0  0  0  0  0  0
    1.0737  -50.6234  -21.0492 C   0  0  0  0  0  0  0  0  0  0  0  0
    0.8647  -49.2819  -20.8171 C   0  0  0  0  0  0  0  0  0  0  0  0
    1.7361  -48.5211  -20.0614 C   0  0  0  0  0  0  0  0  0  0  0  0
    2.8640  -49.0722  -19.5007 C   0  0  0  0  0  0  0  0  0  0  0  0
    3.0897  -50.4190  -19.7203 C   0  0  0  0  0  0  0  0  0  0  0  0
    2.2084  -51.1672  -20.4800 C   0  0  0  0  0  0  0  0  0  0  0  0
   -0.9536  -53.1584  -20.5499 O   0  0  0  0  0  0  0  0  0  0  0  0
   -0.3840  -53.5071  -19.2987 C   0  0  0  0  0  0  0  0  0  0  0  0
   -0.8078  -52.6654  -18.1976 C   0  0  0  0  0  0  0  0  0  0  0  0
   -2.0478  -52.9078  -17.5661 C   0  0  0  0  0  0  0  0  0  0  0  0
   -2.5035  -52.1594  -16.5243 C   0  0  0  0  0  0  0  0  0  0  0  0
   -1.7383  -51.1209  -16.0543 C   0  0  0  0  0  0  0  0  0  0  0  0
   -0.5286  -50.8704  -16.6575 C   0  0  0  0  0  0  0  0  0  0  0  0
   -0.0469  -51.6293  -17.7267 C   0  0  0  0  0  0  0  0  0  0  0  0
   -3.8157  -52.4141  -15.8574 C   0  0  0  0  0  0  0  0  0  0  0  0
   -4.7131  -51.4330  -16.1090 F   0  0  0  0  0  0  0  0  0  0  0  0
   -3.5351  -52.5490  -14.5049 F   0  0  0  0  0  0  0  0  0  0  0  0
   -4.2438  -53.6616  -16.2838 F   0  0  0  0  0  0  0  0  0  0  0  0
    0.2702  -49.7338  -16.0979 C   0  0  0  0  0  0  0  0  0  0  0  0
    0.3632  -49.8579  -14.7053 F   0  0  0  0  0  0  0  0  0  0  0  0
    1.5327  -49.8401  -16.6211 F   0  0  0  0  0  0  0  0  0  0  0  0
   -0.2853  -48.5003  -16.3669 F   0  0  0  0  0  0  0  0  0  0  0  0
 10 11  3  0  0  0
 11  9  1  0  0  0
  9  3  1  0  0  0
  3  4  1  0  0  0
  4  5  1  0  0  0
  5  6  1  0  0  0
  6  2  1  0  0  0
  2  1  1  0  0  0
  1 18  1  0  0  0
 18 19  1  0  0  0
 19 20  1  0  0  0
 20 21  2  0  0  0
 21 22  1  0  0  0
 22 26  1  0  0  0
 26 27  1  0  0  0
 26 28  1  0  0  0
 26 29  1  0  0  0
 22 23  2  0  0  0
 23 24  1  0  0  0
 24 30  1  0  0  0
 30 31  1  0  0  0
 30 32  1  0  0  0
 30 33  1  0  0  0
 24 25  2  0  0  0
  2 12  1  0  0  0
 12 13  2  0  0  0
 13 14  1  0  0  0
 14 15  2  0  0  0
 15 16  1  0  0  0
 16 17  2  0  0  0
  6  7  1  0  0  0
  7  8  1  0  0  0
  8  3  1  0  0  0
 25 20  1  0  0  0
 17 12  1  0  0  0
M  END
> <minimizedAffinity>
-6.91994

> <CNNscore>
0.1382132918

> <CNNaffinity>
6.1284222603

> <CNN_VS>
0.8470293880

> <CNNaffinity_variance>
0.1254688799

$$$$
[H]OC(=O)c1c([H])c([H])c([H])c(O[H])c1C(=O)c1c(O[H])c([H])c(C(=O)OC([H])([H])[C@]2([H])C([H])([H])C([H])([H])C([H])([H])[C@@]2([H])N([H])C(=O)c2c([H])c([H])c(O[H])c([H])c2[H])c([H])c1O[H]


 45 48  0  0  0  0  0  0  0  0999 V2000
   -0.0625  -52.6923  -21.7943 C   0  0  0  0  0  0  0  0  0  0  0  0
    0.7054  -51.9748  -22.6619 C   0  0  0  0  0  0  0  0  0  0  0  0
    0.7897  -52.3202  -24.0179 C   0  0  0  0  0  0  0  0  0  0  0  0
    1.5887  -51.5231  -24.8007 O   0  0  0  0  0  0  0  0  0  0  0  0
    0.1041  -53.3973  -24.5342 C   0  0  0  0  0  0  0  0  0  0  0  0
   -0.6824  -54.1302  -23.6344 C   0  0  0  0  0  0  0  0  0  0  0  0
   -1.4228  -55.2554  -24.0413 O   0  0  0  0  0  0  0  0  0  0  0  0
   -0.7466  -53.7666  -22.3102 C   0  0  0  0  0  0  0  0  0  0  0  0
    1.7893  -51.5398  -25.7560 H   0  0  0  0  0  0  0  0  0  0  0  0
   -1.9716  -55.7574  -23.3889 H   0  0  0  0  0  0  0  0  0  0  0  0
   -0.1633  -52.3372  -20.3603 C   0  0  0  0  0  0  0  0  0  0  0  0
   -0.6076  -53.1965  -19.5882 O   0  0  0  0  0  0  0  0  0  0  0  0
    0.2056  -51.1512  -19.9226 O   0  0  0  0  0  0  0  0  0  0  0  0
    0.7391  -50.5058  -18.8707 C   0  0  0  0  0  0  0  0  0  0  0  0
    2.8295  -49.3803  -19.3662 C   0  0  0  0  0  0  0  0  0  0  0  0
    3.4028  -48.5506  -18.2430 C   0  0  0  0  0  0  0  0  0  0  0  0
    3.4605  -49.3943  -17.0158 C   0  0  0  0  0  0  0  0  0  0  0  0
    2.7038  -50.6823  -17.3116 C   0  0  0  0  0  0  0  0  0  0  0  0
    2.2042  -50.5965  -18.6742 C   0  0  0  0  0  0  0  0  0  0  0  0
    3.1034  -48.1629  -21.7933 O   0  0  0  0  0  0  0  0  0  0  0  0
    3.9277  -49.0931  -21.5530 C   0  0  0  0  0  0  0  0  0  0  0  0
    3.8457  -49.7641  -20.3263 N   0  0  0  0  0  0  0  0  0  0  0  0
    4.5185  -50.5435  -20.1050 H   0  0  0  0  0  0  0  0  0  0  0  0
    4.9085  -49.4142  -22.5530 C   0  0  0  0  0  0  0  0  0  0  0  0
    4.8730  -50.6221  -23.2045 C   0  0  0  0  0  0  0  0  0  0  0  0
    5.8224  -50.9458  -24.1770 C   0  0  0  0  0  0  0  0  0  0  0  0
    6.8068  -50.0396  -24.4857 C   0  0  0  0  0  0  0  0  0  0  0  0
    7.7654  -50.3438  -25.4552 O   0  0  0  0  0  0  0  0  0  0  0  0
    6.8408  -48.8264  -23.8299 C   0  0  0  0  0  0  0  0  0  0  0  0
    5.9097  -48.4990  -22.8706 C   0  0  0  0  0  0  0  0  0  0  0  0
    7.6272  -50.1198  -26.4231 H   0  0  0  0  0  0  0  0  0  0  0  0
    0.2444  -53.9275  -25.8510 C   0  0  0  0  0  0  0  0  0  0  0  0
    0.7489  -55.1407  -25.8540 O   0  0  0  0  0  0  0  0  0  0  0  0
   -0.0719  -53.3987  -27.1521 C   0  0  0  0  0  0  0  0  0  0  0  0
   -1.4158  -52.9589  -27.2706 C   0  0  0  0  0  0  0  0  0  0  0  0
   -2.2634  -53.0582  -26.1763 O   0  0  0  0  0  0  0  0  0  0  0  0
   -1.9103  -52.4384  -28.4262 C   0  0  0  0  0  0  0  0  0  0  0  0
   -1.0466  -52.3535  -29.4904 C   0  0  0  0  0  0  0  0  0  0  0  0
    0.2444  -52.7703  -29.4076 C   0  0  0  0  0  0  0  0  0  0  0  0
    0.7741  -53.3219  -28.2022 C   0  0  0  0  0  0  0  0  0  0  0  0
   -3.2127  -52.7428  -26.2729 H   0  0  0  0  0  0  0  0  0  0  0  0
    2.0804  -53.9342  -28.2918 C   0  0  0  0  0  0  0  0  0  0  0  0
    3.0378  -53.3711  -27.6592 O   0  0  0  0  0  0  0  0  0  0  0  0
    2.4238  -55.0419  -28.9822 O   0  0  0  0  0  0  0  0  0  0  0  0
    3.3460  -55.3473  -29.2220 H   0  0  0  0  0  0  0  0  0  0  0  0
 20 21  2  0  0  0
 21 22  1  0  0  0
 22 15  1  0  0  0
 15 16  1  0  0  0
 16 17  1  0  0  0
 17 18  1  0  0  0
 18 19  1  0  0  0
 19 14  1  0  0  0
 14 13  1  0  0  0
 13 11  1  0  0  0
 11 12  2  0  0  0
 11  1  1  0  0  0
  1  2  2  0  0  0
  2  3  1  0  0  0
  3  4  1  0  0  0
  3  5  2  0  0  0
  5 32  1  0  0  0
 32 33  2  0  0  0
 32 34  1  0  0  0
 34 35  2  0  0  0
 35 36  1  0  0  0
 35 37  1  0  0  0
 37 38  2  0  0  0
 38 39  1  0  0  0
 39 40  2  0  0  0
 40 42  1  0  0  0
 42 43  2  0  0  0
 42 44  1  0  0  0
  5  6  1  0  0  0
  6  7  1  0  0  0
  6  8  2  0  0  0
 21 24  1  0  0  0
 24 25  2  0  0  0
 25 26  1  0  0  0
 26 27  2  0  0  0
 27 28  1  0  0  0
 27 29  1  0  0  0
 29 30  2  0  0  0
 19 15  1  0  0  0
  8  1  1  0  0  0
 30 24  1  0  0  0
 40 34  1  0  0  0
 22 23  1  0  0  0
  4  9  1  0  0  0
 36 41  1  0  0  0
 44 45  1  0  0  0
  7 10  1  0  0  0
 28 31  1  0  0  0
M  END
> <minimizedAffinity>
-9.13036

> <CNNscore>
0.5348960161

> <CNNaffinity>
6.6968269348

> <CNN_VS>
3.5821061134

> <CNNaffinity_variance>
0.1780954152

$$$$
[H]OC(=O)c1c([H])c([H])c([H])c(O[H])c1C(=O)c1c(O[H])c([H])c(C(=O)OC([H])([H])[C@]2([H])C([H])([H])C([H])([H])C([H])([H])[C@@]2([H])N([H])C(=O)c2c([H])c([H])c(O[H])c([H])c2[H])c([H])c1O[H]


 45 48  0  0  0  0  0  0  0  0999 V2000
    4.3173  -50.7638  -23.6793 C   0  0  0  0  0  0  0  0  0  0  0  0
    4.6475  -51.6999  -24.6130 C   0  0  0  0  0  0  0  0  0  0  0  0
    3.6625  -52.4048  -25.3186 C   0  0  0  0  0  0  0  0  0  0  0  0
    4.1106  -53.3200  -26.2395 O   0  0  0  0  0  0  0  0  0  0  0  0
    2.3203  -52.1858  -25.1012 C   0  0  0  0  0  0  0  0  0  0  0  0
    1.9898  -51.2219  -24.1383 C   0  0  0  0  0  0  0  0  0  0  0  0
    0.6532  -50.9154  -23.8228 O   0  0  0  0  0  0  0  0  0  0  0  0
    2.9779  -50.5455  -23.4632 C   0  0  0  0  0  0  0  0  0  0  0  0
    3.6361  -53.9059  -26.8597 H   0  0  0  0  0  0  0  0  0  0  0  0
    0.4433  -50.2310  -23.1400 H   0  0  0  0  0  0  0  0  0  0  0  0
    5.3471  -50.0096  -22.9288 C   0  0  0  0  0  0  0  0  0  0  0  0
    6.4815  -50.5005  -22.8638 O   0  0  0  0  0  0  0  0  0  0  0  0
    5.0667  -48.8597  -22.3515 O   0  0  0  0  0  0  0  0  0  0  0  0
    5.0165  -48.2308  -21.1642 C   0  0  0  0  0  0  0  0  0  0  0  0
    3.5256  -49.3405  -19.6061 C   0  0  0  0  0  0  0  0  0  0  0  0
    3.5364  -48.7974  -18.1977 C   0  0  0  0  0  0  0  0  0  0  0  0
    3.3367  -47.3218  -18.2601 C   0  0  0  0  0  0  0  0  0  0  0  0
    3.4362  -46.9094  -19.7225 C   0  0  0  0  0  0  0  0  0  0  0  0
    3.6976  -48.1086  -20.5016 C   0  0  0  0  0  0  0  0  0  0  0  0
    3.3818  -52.0656  -19.6407 O   0  0  0  0  0  0  0  0  0  0  0  0
    2.3009  -51.4586  -19.8969 C   0  0  0  0  0  0  0  0  0  0  0  0
    2.3002  -50.0580  -19.8982 N   0  0  0  0  0  0  0  0  0  0  0  0
    1.4138  -49.5308  -20.1115 H   0  0  0  0  0  0  0  0  0  0  0  0
    1.1264  -52.2389  -20.1738 C   0  0  0  0  0  0  0  0  0  0  0  0
    1.0366  -52.9831  -21.3239 C   0  0  0  0  0  0  0  0  0  0  0  0
   -0.1012  -53.7439  -21.6043 C   0  0  0  0  0  0  0  0  0  0  0  0
   -1.1463  -53.7467  -20.7136 C   0  0  0  0  0  0  0  0  0  0  0  0
   -2.2926  -54.5009  -20.9753 O   0  0  0  0  0  0  0  0  0  0  0  0
   -1.0541  -52.9983  -19.5585 C   0  0  0  0  0  0  0  0  0  0  0  0
    0.0627  -52.2459  -19.2740 C   0  0  0  0  0  0  0  0  0  0  0  0
   -2.3799  -55.4524  -20.6701 H   0  0  0  0  0  0  0  0  0  0  0  0
    1.2469  -52.9538  -25.6423 C   0  0  0  0  0  0  0  0  0  0  0  0
    0.9262  -53.9762  -24.8820 O   0  0  0  0  0  0  0  0  0  0  0  0
    0.4534  -52.8122  -26.8352 C   0  0  0  0  0  0  0  0  0  0  0  0
   -0.9260  -52.6062  -26.5737 C   0  0  0  0  0  0  0  0  0  0  0  0
   -1.3685  -52.5487  -25.2596 O   0  0  0  0  0  0  0  0  0  0  0  0
   -1.8403  -52.4614  -27.5706 C   0  0  0  0  0  0  0  0  0  0  0  0
   -1.3709  -52.5232  -28.8596 C   0  0  0  0  0  0  0  0  0  0  0  0
   -0.0562  -52.7233  -29.1405 C   0  0  0  0  0  0  0  0  0  0  0  0
    0.9122  -52.8808  -28.1036 C   0  0  0  0  0  0  0  0  0  0  0  0
   -2.3477  -52.4018  -25.0878 H   0  0  0  0  0  0  0  0  0  0  0  0
    2.2312  -53.3088  -28.5117 C   0  0  0  0  0  0  0  0  0  0  0  0
    2.4157  -54.5621  -28.6819 O   0  0  0  0  0  0  0  0  0  0  0  0
    3.3159  -52.5358  -28.7295 O   0  0  0  0  0  0  0  0  0  0  0  0
    4.2690  -52.8319  -28.8015 H   0  0  0  0  0  0  0  0  0  0  0  0
 20 21  2  0  0  0
 21 22  1  0  0  0
 22 15  1  0  0  0
 15 16  1  0  0  0
 16 17  1  0  0  0
 17 18  1  0  0  0
 18 19  1  0  0  0
 19 14  1  0  0  0
 14 13  1  0  0  0
 13 11  1  0  0  0
 11 12  2  0  0  0
 11  1  1  0  0  0
  1  2  2  0  0  0
  2  3  1  0  0  0
  3  4  1  0  0  0
  3  5  2  0  0  0
  5 32  1  0  0  0
 32 33  2  0  0  0
 32 34  1  0  0  0
 34 35  2  0  0  0
 35 36  1  0  0  0
 35 37  1  0  0  0
 37 38  2  0  0  0
 38 39  1  0  0  0
 39 40  2  0  0  0
 40 42  1  0  0  0
 42 43  2  0  0  0
 42 44  1  0  0  0
  5  6  1  0  0  0
  6  7  1  0  0  0
  6  8  2  0  0  0
 21 24  1  0  0  0
 24 25  2  0  0  0
 25 26  1  0  0  0
 26 27  2  0  0  0
 27 28  1  0  0  0
 27 29  1  0  0  0
 29 30  2  0  0  0
 19 15  1  0  0  0
  8  1  1  0  0  0
 30 24  1  0  0  0
 40 34  1  0  0  0
 22 23  1  0  0  0
  4  9  1  0  0  0
 36 41  1  0  0  0
 44 45  1  0  0  0
  7 10  1  0  0  0
 28 31  1  0  0  0
M  END
> <minimizedAffinity>
-9.11538

> <CNNscore>
0.5277040601

> <CNNaffinity>
6.3920097351

> <CNN_VS>
3.3730895519

> <CNNaffinity_variance>
0.2043970823

$$$$
[H]OC(=O)c1c([H])c([H])c([H])c(O[H])c1C(=O)c1c(O[H])c([H])c(C(=O)OC([H])([H])[C@]2([H])C([H])([H])C([H])([H])C([H])([H])[C@@]2([H])N([H])C(=O)c2c([H])c([H])c(O[H])c([H])c2[H])c([H])c1O[H]


 45 48  0  0  0  0  0  0  0  0999 V2000
    1.0697  -51.1293  -22.2126 C   0  0  0  0  0  0  0  0  0  0  0  0
    1.6688  -50.6987  -23.3583 C   0  0  0  0  0  0  0  0  0  0  0  0
    1.4473  -51.3430  -24.5834 C   0  0  0  0  0  0  0  0  0  0  0  0
    2.0985  -50.8193  -25.6733 O   0  0  0  0  0  0  0  0  0  0  0  0
    0.6179  -52.4377  -24.6855 C   0  0  0  0  0  0  0  0  0  0  0  0
    0.0066  -52.8745  -23.5018 C   0  0  0  0  0  0  0  0  0  0  0  0
   -0.8552  -53.9864  -23.4777 O   0  0  0  0  0  0  0  0  0  0  0  0
    0.2420  -52.2214  -22.3152 C   0  0  0  0  0  0  0  0  0  0  0  0
    2.0908  -51.0667  -26.6177 H   0  0  0  0  0  0  0  0  0  0  0  0
   -1.2761  -54.2765  -22.6307 H   0  0  0  0  0  0  0  0  0  0  0  0
    1.2923  -50.4566  -20.9123 C   0  0  0  0  0  0  0  0  0  0  0  0
    0.2994  -50.2276  -20.2096 O   0  0  0  0  0  0  0  0  0  0  0  0
    2.5013  -50.1142  -20.5183 O   0  0  0  0  0  0  0  0  0  0  0  0
    3.2930  -49.0607  -20.2524 C   0  0  0  0  0  0  0  0  0  0  0  0
    2.8134  -48.6496  -17.9107 C   0  0  0  0  0  0  0  0  0  0  0  0
    3.8580  -47.8571  -17.1629 C   0  0  0  0  0  0  0  0  0  0  0  0
    4.1499  -46.6160  -17.9348 C   0  0  0  0  0  0  0  0  0  0  0  0
    3.4588  -46.7456  -19.2855 C   0  0  0  0  0  0  0  0  0  0  0  0
    2.7853  -48.0336  -19.3139 C   0  0  0  0  0  0  0  0  0  0  0  0
    1.4385  -50.8723  -17.1249 O   0  0  0  0  0  0  0  0  0  0  0  0
    0.8715  -49.7663  -16.8846 C   0  0  0  0  0  0  0  0  0  0  0  0
    1.5187  -48.5828  -17.2618 N   0  0  0  0  0  0  0  0  0  0  0  0
    1.0653  -47.6508  -17.0752 H   0  0  0  0  0  0  0  0  0  0  0  0
   -0.4104  -49.7808  -16.2352 C   0  0  0  0  0  0  0  0  0  0  0  0
   -1.1181  -50.9507  -16.1114 C   0  0  0  0  0  0  0  0  0  0  0  0
   -2.3660  -50.9762  -15.4838 C   0  0  0  0  0  0  0  0  0  0  0  0
   -2.8922  -49.8111  -14.9825 C   0  0  0  0  0  0  0  0  0  0  0  0
   -4.1383  -49.8154  -14.3512 O   0  0  0  0  0  0  0  0  0  0  0  0
   -2.1795  -48.6367  -15.1079 C   0  0  0  0  0  0  0  0  0  0  0  0
   -0.9495  -48.6020  -15.7246 C   0  0  0  0  0  0  0  0  0  0  0  0
   -4.2298  -49.9675  -13.3640 H   0  0  0  0  0  0  0  0  0  0  0  0
    0.4506  -53.2581  -25.8404 C   0  0  0  0  0  0  0  0  0  0  0  0
    0.8424  -54.4960  -25.6397 O   0  0  0  0  0  0  0  0  0  0  0  0
   -0.0721  -52.9928  -27.1554 C   0  0  0  0  0  0  0  0  0  0  0  0
   -1.4720  -52.7615  -27.1697 C   0  0  0  0  0  0  0  0  0  0  0  0
   -2.1798  -52.7957  -25.9765 O   0  0  0  0  0  0  0  0  0  0  0  0
   -2.1539  -52.5048  -28.3186 C   0  0  0  0  0  0  0  0  0  0  0  0
   -1.4252  -52.4777  -29.4821 C   0  0  0  0  0  0  0  0  0  0  0  0
   -0.0843  -52.6993  -29.4997 C   0  0  0  0  0  0  0  0  0  0  0  0
    0.6419  -52.9738  -28.3017 C   0  0  0  0  0  0  0  0  0  0  0  0
   -3.1706  -52.6298  -26.0000 H   0  0  0  0  0  0  0  0  0  0  0  0
    2.0099  -53.4123  -28.4621 C   0  0  0  0  0  0  0  0  0  0  0  0
    2.9321  -52.6027  -28.1044 O   0  0  0  0  0  0  0  0  0  0  0  0
    2.4431  -54.5886  -28.9621 O   0  0  0  0  0  0  0  0  0  0  0  0
    3.3676  -54.8143  -29.2715 H   0  0  0  0  0  0  0  0  0  0  0  0
 20 21  2  0  0  0
 21 22  1  0  0  0
 22 15  1  0  0  0
 15 16  1  0  0  0
 16 17  1  0  0  0
 17 18  1  0  0  0
 18 19  1  0  0  0
 19 14  1  0  0  0
 14 13  1  0  0  0
 13 11  1  0  0  0
 11 12  2  0  0  0
 11  1  1  0  0  0
  1  2  2  0  0  0
  2  3  1  0  0  0
  3  4  1  0  0  0
  3  5  2  0  0  0
  5 32  1  0  0  0
 32 33  2  0  0  0
 32 34  1  0  0  0
 34 35  2  0  0  0
 35 36  1  0  0  0
 35 37  1  0  0  0
 37 38  2  0  0  0
 38 39  1  0  0  0
 39 40  2  0  0  0
 40 42  1  0  0  0
 42 43  2  0  0  0
 42 44  1  0  0  0
  5  6  1  0  0  0
  6  7  1  0  0  0
  6  8  2  0  0  0
 21 24  1  0  0  0
 24 25  2  0  0  0
 25 26  1  0  0  0
 26 27  2  0  0  0
 27 28  1  0  0  0
 27 29  1  0  0  0
 29 30  2  0  0  0
 19 15  1  0  0  0
  8  1  1  0  0  0
 30 24  1  0  0  0
 40 34  1  0  0  0
 22 23  1  0  0  0
  4  9  1  0  0  0
 36 41  1  0  0  0
 44 45  1  0  0  0
  7 10  1  0  0  0
 28 31  1  0  0  0
M  END
> <minimizedAffinity>
-9.13188

> <CNNscore>
0.5151582360

> <CNNaffinity>
6.2542772293

> <CNN_VS>
3.2219424248

> <CNNaffinity_variance>
0.0685813278

$$$$
[H]OC(=O)c1c([H])c([H])c([H])c(O[H])c1C(=O)c1c(O[H])c([H])c(C(=O)OC([H])([H])[C@]2([H])C([H])([H])C([H])([H])C([H])([H])[C@@]2([H])N([H])C(=O)c2c([H])c([H])c(O[H])c([H])c2[H])c([H])c1O[H]


 45 48  0  0  0  0  0  0  0  0999 V2000
    3.8923  -50.3181  -23.7486 C   0  0  0  0  0  0  0  0  0  0  0  0
    2.5538  -50.2827  -23.4955 C   0  0  0  0  0  0  0  0  0  0  0  0
    1.6793  -51.2191  -24.0645 C   0  0  0  0  0  0  0  0  0  0  0  0
    0.3521  -51.0915  -23.7350 O   0  0  0  0  0  0  0  0  0  0  0  0
    2.1304  -52.2138  -24.9034 C   0  0  0  0  0  0  0  0  0  0  0  0
    3.5086  -52.2420  -25.1590 C   0  0  0  0  0  0  0  0  0  0  0  0
    4.0873  -53.2056  -26.0054 O   0  0  0  0  0  0  0  0  0  0  0  0
    4.3418  -51.3110  -24.5854 C   0  0  0  0  0  0  0  0  0  0  0  0
   -0.4327  -51.6199  -23.9759 H   0  0  0  0  0  0  0  0  0  0  0  0
    5.0626  -53.2068  -26.1711 H   0  0  0  0  0  0  0  0  0  0  0  0
    4.8278  -49.3374  -23.1522 C   0  0  0  0  0  0  0  0  0  0  0  0
    5.4617  -48.6081  -23.9258 O   0  0  0  0  0  0  0  0  0  0  0  0
    4.9803  -49.2446  -21.8475 O   0  0  0  0  0  0  0  0  0  0  0  0
    4.8924  -48.3977  -20.8070 C   0  0  0  0  0  0  0  0  0  0  0  0
    3.4401  -49.5400  -19.2360 C   0  0  0  0  0  0  0  0  0  0  0  0
    3.4840  -49.0249  -17.8178 C   0  0  0  0  0  0  0  0  0  0  0  0
    3.2816  -47.5485  -17.8462 C   0  0  0  0  0  0  0  0  0  0  0  0
    3.3458  -47.1071  -19.3022 C   0  0  0  0  0  0  0  0  0  0  0  0
    3.5896  -48.2904  -20.1108 C   0  0  0  0  0  0  0  0  0  0  0  0
    3.3949  -52.1228  -20.1166 O   0  0  0  0  0  0  0  0  0  0  0  0
    2.2623  -51.5790  -19.9615 C   0  0  0  0  0  0  0  0  0  0  0  0
    2.2086  -50.2532  -19.5130 N   0  0  0  0  0  0  0  0  0  0  0  0
    1.2781  -49.7785  -19.3795 H   0  0  0  0  0  0  0  0  0  0  0  0
    1.0862  -52.3512  -20.2538 C   0  0  0  0  0  0  0  0  0  0  0  0
   -0.0160  -52.2820  -19.4383 C   0  0  0  0  0  0  0  0  0  0  0  0
   -1.1641  -53.0297  -19.7117 C   0  0  0  0  0  0  0  0  0  0  0  0
   -1.1893  -53.8468  -20.8150 C   0  0  0  0  0  0  0  0  0  0  0  0
   -2.3277  -54.6023  -21.1061 O   0  0  0  0  0  0  0  0  0  0  0  0
   -0.0808  -53.9148  -21.6333 C   0  0  0  0  0  0  0  0  0  0  0  0
    1.0545  -53.1820  -21.3718 C   0  0  0  0  0  0  0  0  0  0  0  0
   -3.0648  -54.2453  -21.6851 H   0  0  0  0  0  0  0  0  0  0  0  0
    1.3147  -53.1098  -25.6561 C   0  0  0  0  0  0  0  0  0  0  0  0
    1.3087  -54.3251  -25.1570 O   0  0  0  0  0  0  0  0  0  0  0  0
    0.4995  -52.9317  -26.8293 C   0  0  0  0  0  0  0  0  0  0  0  0
   -0.8810  -52.7787  -26.5387 C   0  0  0  0  0  0  0  0  0  0  0  0
   -1.3049  -52.7995  -25.2175 O   0  0  0  0  0  0  0  0  0  0  0  0
   -1.8141  -52.6106  -27.5144 C   0  0  0  0  0  0  0  0  0  0  0  0
   -1.3629  -52.5945  -28.8112 C   0  0  0  0  0  0  0  0  0  0  0  0
   -0.0475  -52.7424  -29.1199 C   0  0  0  0  0  0  0  0  0  0  0  0
    0.9407  -52.9236  -28.1058 C   0  0  0  0  0  0  0  0  0  0  0  0
   -2.2850  -52.6896  -25.0249 H   0  0  0  0  0  0  0  0  0  0  0  0
    2.2647  -53.2927  -28.5531 C   0  0  0  0  0  0  0  0  0  0  0  0
    2.4612  -54.5182  -28.8590 O   0  0  0  0  0  0  0  0  0  0  0  0
    3.3429  -52.4909  -28.6805 O   0  0  0  0  0  0  0  0  0  0  0  0
    4.2989  -52.7690  -28.7808 H   0  0  0  0  0  0  0  0  0  0  0  0
 20 21  2  0  0  0
 21 22  1  0  0  0
 22 15  1  0  0  0
 15 16  1  0  0  0
 16 17  1  0  0  0
 17 18  1  0  0  0
 18 19  1  0  0  0
 19 14  1  0  0  0
 14 13  1  0  0  0
 13 11  1  0  0  0
 11 12  2  0  0  0
 11  1  1  0  0  0
  1  2  2  0  0  0
  2  3  1  0  0  0
  3  4  1  0  0  0
  3  5  2  0  0  0
  5 32  1  0  0  0
 32 33  2  0  0  0
 32 34  1  0  0  0
 34 35  2  0  0  0
 35 36  1  0  0  0
 35 37  1  0  0  0
 37 38  2  0  0  0
 38 39  1  0  0  0
 39 40  2  0  0  0
 40 42  1  0  0  0
 42 43  2  0  0  0
 42 44  1  0  0  0
  5  6  1  0  0  0
  6  7  1  0  0  0
  6  8  2  0  0  0
 21 24  1  0  0  0
 24 25  2  0  0  0
 25 26  1  0  0  0
 26 27  2  0  0  0
 27 28  1  0  0  0
 27 29  1  0  0  0
 29 30  2  0  0  0
 19 15  1  0  0  0
  8  1  1  0  0  0
 30 24  1  0  0  0
 40 34  1  0  0  0
 22 23  1  0  0  0
  4  9  1  0  0  0
 36 41  1  0  0  0
 44 45  1  0  0  0
  7 10  1  0  0  0
 28 31  1  0  0  0
M  END
> <minimizedAffinity>
-8.83629

> <CNNscore>
0.4979571104

> <CNNaffinity>
6.3652572632

> <CNN_VS>
3.1696250439

> <CNNaffinity_variance>
0.1871287227

$$$$
[H]OC(=O)c1c([H])c([H])c([H])c(O[H])c1C(=O)c1c(O[H])c([H])c(C(=O)OC([H])([H])[C@]2([H])C([H])([H])C([H])([H])C([H])([H])[C@@]2([H])N([H])C(=O)c2c([H])c([H])c(O[H])c([H])c2[H])c([H])c1O[H]


 45 48  0  0  0  0  0  0  0  0999 V2000
   -0.6688  -53.0668  -20.5709 C   0  0  0  0  0  0  0  0  0  0  0  0
   -1.0054  -53.4357  -19.3029 C   0  0  0  0  0  0  0  0  0  0  0  0
   -0.6399  -52.6572  -18.1959 C   0  0  0  0  0  0  0  0  0  0  0  0
   -1.0378  -53.1223  -16.9664 O   0  0  0  0  0  0  0  0  0  0  0  0
    0.0747  -51.4884  -18.3375 C   0  0  0  0  0  0  0  0  0  0  0  0
    0.4176  -51.1172  -19.6453 C   0  0  0  0  0  0  0  0  0  0  0  0
    1.1529  -49.9487  -19.9168 O   0  0  0  0  0  0  0  0  0  0  0  0
    0.0439  -51.9004  -20.7115 C   0  0  0  0  0  0  0  0  0  0  0  0
   -0.9307  -52.7590  -16.0666 H   0  0  0  0  0  0  0  0  0  0  0  0
    1.3833  -49.7060  -20.8478 H   0  0  0  0  0  0  0  0  0  0  0  0
   -1.0507  -53.8777  -21.7495 C   0  0  0  0  0  0  0  0  0  0  0  0
   -1.9726  -54.6917  -21.6092 O   0  0  0  0  0  0  0  0  0  0  0  0
   -0.4326  -53.7386  -22.9039 O   0  0  0  0  0  0  0  0  0  0  0  0
   -0.6289  -53.6558  -24.2314 C   0  0  0  0  0  0  0  0  0  0  0  0
    1.1265  -52.2510  -25.1412 C   0  0  0  0  0  0  0  0  0  0  0  0
    1.2662  -52.2772  -26.6439 C   0  0  0  0  0  0  0  0  0  0  0  0
   -0.0721  -52.0180  -27.2463 C   0  0  0  0  0  0  0  0  0  0  0  0
   -1.0958  -52.0628  -26.1199 C   0  0  0  0  0  0  0  0  0  0  0  0
   -0.3817  -52.3509  -24.8869 C   0  0  0  0  0  0  0  0  0  0  0  0
    2.6542  -52.2727  -22.8798 O   0  0  0  0  0  0  0  0  0  0  0  0
    2.4716  -51.1352  -23.4044 C   0  0  0  0  0  0  0  0  0  0  0  0
    1.6959  -51.0476  -24.5673 N   0  0  0  0  0  0  0  0  0  0  0  0
    1.5274  -50.1119  -25.0202 H   0  0  0  0  0  0  0  0  0  0  0  0
    3.0711  -49.9885  -22.7791 C   0  0  0  0  0  0  0  0  0  0  0  0
    2.5383  -48.7361  -22.9586 C   0  0  0  0  0  0  0  0  0  0  0  0
    3.1139  -47.6140  -22.3573 C   0  0  0  0  0  0  0  0  0  0  0  0
    4.2308  -47.7679  -21.5735 C   0  0  0  0  0  0  0  0  0  0  0  0
    4.8213  -46.6588  -20.9631 O   0  0  0  0  0  0  0  0  0  0  0  0
    4.7646  -49.0273  -21.3943 C   0  0  0  0  0  0  0  0  0  0  0  0
    4.2044  -50.1383  -21.9828 C   0  0  0  0  0  0  0  0  0  0  0  0
    4.5487  -46.3522  -20.0478 H   0  0  0  0  0  0  0  0  0  0  0  0
    0.6315  -50.7124  -17.2780 C   0  0  0  0  0  0  0  0  0  0  0  0
    0.1088  -49.5091  -17.2068 O   0  0  0  0  0  0  0  0  0  0  0  0
    1.6290  -51.0006  -16.2807 C   0  0  0  0  0  0  0  0  0  0  0  0
    1.0845  -51.2519  -14.9947 C   0  0  0  0  0  0  0  0  0  0  0  0
   -0.2915  -51.2136  -14.8188 O   0  0  0  0  0  0  0  0  0  0  0  0
    1.8664  -51.5318  -13.9171 C   0  0  0  0  0  0  0  0  0  0  0  0
    3.2235  -51.5623  -14.1239 C   0  0  0  0  0  0  0  0  0  0  0  0
    3.7738  -51.3219  -15.3433 C   0  0  0  0  0  0  0  0  0  0  0  0
    2.9645  -51.0230  -16.4807 C   0  0  0  0  0  0  0  0  0  0  0  0
   -0.6647  -51.3939  -13.9033 H   0  0  0  0  0  0  0  0  0  0  0  0
    3.6578  -50.5671  -17.6643 C   0  0  0  0  0  0  0  0  0  0  0  0
    3.6438  -51.3353  -18.6859 O   0  0  0  0  0  0  0  0  0  0  0  0
    4.3400  -49.4137  -17.8247 O   0  0  0  0  0  0  0  0  0  0  0  0
    4.9905  -49.1880  -18.5508 H   0  0  0  0  0  0  0  0  0  0  0  0
 20 21  2  0  0  0
 21 22  1  0  0  0
 22 15  1  0  0  0
 15 16  1  0  0  0
 16 17  1  0  0  0
 17 18  1  0  0  0
 18 19  1  0  0  0
 19 14  1  0  0  0
 14 13  1  0  0  0
 13 11  1  0  0  0
 11 12  2  0  0  0
 11  1  1  0  0  0
  1  2  2  0  0  0
  2  3  1  0  0  0
  3  4  1  0  0  0
  3  5  2  0  0  0
  5 32  1  0  0  0
 32 33  2  0  0  0
 32 34  1  0  0  0
 34 35  2  0  0  0
 35 36  1  0  0  0
 35 37  1  0  0  0
 37 38  2  0  0  0
 38 39  1  0  0  0
 39 40  2  0  0  0
 40 42  1  0  0  0
 42 43  2  0  0  0
 42 44  1  0  0  0
  5  6  1  0  0  0
  6  7  1  0  0  0
  6  8  2  0  0  0
 21 24  1  0  0  0
 24 25  2  0  0  0
 25 26  1  0  0  0
 26 27  2  0  0  0
 27 28  1  0  0  0
 27 29  1  0  0  0
 29 30  2  0  0  0
 19 15  1  0  0  0
  8  1  1  0  0  0
 30 24  1  0  0  0
 40 34  1  0  0  0
 22 23  1  0  0  0
  4  9  1  0  0  0
 36 41  1  0  0  0
 44 45  1  0  0  0
  7 10  1  0  0  0
 28 31  1  0  0  0
M  END
> <minimizedAffinity>
-8.62756

> <CNNscore>
0.4669530988

> <CNNaffinity>
6.1263647079

> <CNN_VS>
2.8607249260

> <CNNaffinity_variance>
0.0589135513

$$$$
[H]OC(=O)c1c([H])c([H])c([H])c(O[H])c1C(=O)c1c(O[H])c([H])c(C(=O)OC([H])([H])[C@]2([H])C([H])([H])C([H])([H])C([H])([H])[C@@]2([H])N([H])C(=O)c2c([H])c([H])c(O[H])c([H])c2[H])c([H])c1O[H]


 45 48  0  0  0  0  0  0  0  0999 V2000
    1.6110  -50.6316  -22.4542 C   0  0  0  0  0  0  0  0  0  0  0  0
    2.2087  -50.4111  -23.6589 C   0  0  0  0  0  0  0  0  0  0  0  0
    1.8661  -51.1633  -24.7912 C   0  0  0  0  0  0  0  0  0  0  0  0
    2.5283  -50.8506  -25.9531 O   0  0  0  0  0  0  0  0  0  0  0  0
    0.9141  -52.1571  -24.7387 C   0  0  0  0  0  0  0  0  0  0  0  0
    0.3053  -52.3778  -23.4953 C   0  0  0  0  0  0  0  0  0  0  0  0
   -0.6759  -53.3700  -23.3146 O   0  0  0  0  0  0  0  0  0  0  0  0
    0.6610  -51.6231  -22.4027 C   0  0  0  0  0  0  0  0  0  0  0  0
    2.4546  -51.2038  -26.8603 H   0  0  0  0  0  0  0  0  0  0  0  0
   -1.0926  -53.5078  -22.4280 H   0  0  0  0  0  0  0  0  0  0  0  0
    1.9608  -49.8428  -21.2509 C   0  0  0  0  0  0  0  0  0  0  0  0
    1.2112  -48.9074  -20.9424 O   0  0  0  0  0  0  0  0  0  0  0  0
    3.0297  -50.1255  -20.5355 O   0  0  0  0  0  0  0  0  0  0  0  0
    4.3241  -49.8095  -20.3560 C   0  0  0  0  0  0  0  0  0  0  0  0
    5.4115  -48.3019  -21.9139 C   0  0  0  0  0  0  0  0  0  0  0  0
    6.8773  -48.0487  -21.6572 C   0  0  0  0  0  0  0  0  0  0  0  0
    7.5668  -49.3635  -21.5258 C   0  0  0  0  0  0  0  0  0  0  0  0
    6.4905  -50.4390  -21.4662 C   0  0  0  0  0  0  0  0  0  0  0  0
    5.1997  -49.7756  -21.5501 C   0  0  0  0  0  0  0  0  0  0  0  0
    3.2462  -46.7864  -22.5940 O   0  0  0  0  0  0  0  0  0  0  0  0
    3.9237  -47.2365  -23.5638 C   0  0  0  0  0  0  0  0  0  0  0  0
    5.0491  -48.0242  -23.2899 N   0  0  0  0  0  0  0  0  0  0  0  0
    5.6266  -48.4125  -24.0802 H   0  0  0  0  0  0  0  0  0  0  0  0
    3.5034  -46.9158  -24.9001 C   0  0  0  0  0  0  0  0  0  0  0  0
    3.7960  -47.7560  -25.9456 C   0  0  0  0  0  0  0  0  0  0  0  0
    3.3942  -47.4533  -27.2490 C   0  0  0  0  0  0  0  0  0  0  0  0
    2.6946  -46.2959  -27.4868 C   0  0  0  0  0  0  0  0  0  0  0  0
    2.2835  -45.9751  -28.7828 O   0  0  0  0  0  0  0  0  0  0  0  0
    2.4015  -45.4530  -26.4349 C   0  0  0  0  0  0  0  0  0  0  0  0
    2.7934  -45.7430  -25.1478 C   0  0  0  0  0  0  0  0  0  0  0  0
    1.3952  -46.2702  -29.1433 H   0  0  0  0  0  0  0  0  0  0  0  0
    0.6082  -53.0811  -25.7815 C   0  0  0  0  0  0  0  0  0  0  0  0
    0.8864  -54.3221  -25.4521 O   0  0  0  0  0  0  0  0  0  0  0  0
    0.0475  -52.9136  -27.0969 C   0  0  0  0  0  0  0  0  0  0  0  0
   -1.3638  -52.7661  -27.0937 C   0  0  0  0  0  0  0  0  0  0  0  0
   -2.0471  -52.7819  -25.8859 O   0  0  0  0  0  0  0  0  0  0  0  0
   -2.0800  -52.6082  -28.2396 C   0  0  0  0  0  0  0  0  0  0  0  0
   -1.3749  -52.5969  -29.4178 C   0  0  0  0  0  0  0  0  0  0  0  0
   -0.0237  -52.7397  -29.4521 C   0  0  0  0  0  0  0  0  0  0  0  0
    0.7386  -52.9103  -28.2573 C   0  0  0  0  0  0  0  0  0  0  0  0
   -3.0464  -52.6760  -25.8971 H   0  0  0  0  0  0  0  0  0  0  0  0
    2.1274  -53.2749  -28.4241 C   0  0  0  0  0  0  0  0  0  0  0  0
    2.3900  -54.5086  -28.6318 O   0  0  0  0  0  0  0  0  0  0  0  0
    3.2028  -52.4609  -28.3765 O   0  0  0  0  0  0  0  0  0  0  0  0
    4.1625  -52.7264  -28.2781 H   0  0  0  0  0  0  0  0  0  0  0  0
 20 21  2  0  0  0
 21 22  1  0  0  0
 22 15  1  0  0  0
 15 16  1  0  0  0
 16 17  1  0  0  0
 17 18  1  0  0  0
 18 19  1  0  0  0
 19 14  1  0  0  0
 14 13  1  0  0  0
 13 11  1  0  0  0
 11 12  2  0  0  0
 11  1  1  0  0  0
  1  2  2  0  0  0
  2  3  1  0  0  0
  3  4  1  0  0  0
  3  5  2  0  0  0
  5 32  1  0  0  0
 32 33  2  0  0  0
 32 34  1  0  0  0
 34 35  2  0  0  0
 35 36  1  0  0  0
 35 37  1  0  0  0
 37 38  2  0  0  0
 38 39  1  0  0  0
 39 40  2  0  0  0
 40 42  1  0  0  0
 42 43  2  0  0  0
 42 44  1  0  0  0
  5  6  1  0  0  0
  6  7  1  0  0  0
  6  8  2  0  0  0
 21 24  1  0  0  0
 24 25  2  0  0  0
 25 26  1  0  0  0
 26 27  2  0  0  0
 27 28  1  0  0  0
 27 29  1  0  0  0
 29 30  2  0  0  0
 19 15  1  0  0  0
  8  1  1  0  0  0
 30 24  1  0  0  0
 40 34  1  0  0  0
 22 23  1  0  0  0
  4  9  1  0  0  0
 36 41  1  0  0  0
 44 45  1  0  0  0
  7 10  1  0  0  0
 28 31  1  0  0  0
M  END
> <minimizedAffinity>
-8.96196

> <CNNscore>
0.4450584352

> <CNNaffinity>
6.3408589363

> <CNN_VS>
2.8220527172

> <CNNaffinity_variance>
0.0464346483

$$$$
[H]OC(=O)c1c([H])c([H])c([H])c(O[H])c1C(=O)c1c(O[H])c([H])c(C(=O)OC([H])([H])[C@]2([H])C([H])([H])C([H])([H])C([H])([H])[C@@]2([H])N([H])C(=O)c2c([H])c([H])c(O[H])c([H])c2[H])c([H])c1O[H]


 45 48  0  0  0  0  0  0  0  0999 V2000
   -0.5209  -52.8334  -20.6351 C   0  0  0  0  0  0  0  0  0  0  0  0
   -0.8427  -53.2984  -19.3953 C   0  0  0  0  0  0  0  0  0  0  0  0
   -0.5319  -52.5684  -18.2396 C   0  0  0  0  0  0  0  0  0  0  0  0
   -0.9087  -53.1306  -17.0445 O   0  0  0  0  0  0  0  0  0  0  0  0
    0.1117  -51.3525  -18.3031 C   0  0  0  0  0  0  0  0  0  0  0  0
    0.4399  -50.8823  -19.5826 C   0  0  0  0  0  0  0  0  0  0  0  0
    1.1049  -49.6575  -19.7755 O   0  0  0  0  0  0  0  0  0  0  0  0
    0.1209  -51.6200  -20.6979 C   0  0  0  0  0  0  0  0  0  0  0  0
   -0.8294  -52.8171  -16.1233 H   0  0  0  0  0  0  0  0  0  0  0  0
    1.3261  -49.3451  -20.6878 H   0  0  0  0  0  0  0  0  0  0  0  0
   -0.8457  -53.5924  -21.8644 C   0  0  0  0  0  0  0  0  0  0  0  0
   -1.2738  -54.7458  -21.7280 O   0  0  0  0  0  0  0  0  0  0  0  0
   -0.6850  -53.0606  -23.0583 O   0  0  0  0  0  0  0  0  0  0  0  0
   -0.6313  -53.3478  -24.3706 C   0  0  0  0  0  0  0  0  0  0  0  0
    1.1133  -52.2224  -25.6245 C   0  0  0  0  0  0  0  0  0  0  0  0
    1.2063  -52.5933  -27.0848 C   0  0  0  0  0  0  0  0  0  0  0  0
   -0.1466  -52.4520  -27.6940 C   0  0  0  0  0  0  0  0  0  0  0  0
   -1.1355  -52.2186  -26.5598 C   0  0  0  0  0  0  0  0  0  0  0  0
   -0.3874  -52.2319  -25.3134 C   0  0  0  0  0  0  0  0  0  0  0  0
    2.4944  -51.6839  -23.3331 O   0  0  0  0  0  0  0  0  0  0  0  0
    2.4117  -50.7275  -24.1581 C   0  0  0  0  0  0  0  0  0  0  0  0
    1.7158  -50.9313  -25.3565 N   0  0  0  0  0  0  0  0  0  0  0  0
    1.6308  -50.1496  -26.0570 H   0  0  0  0  0  0  0  0  0  0  0  0
    3.0376  -49.4780  -23.8231 C   0  0  0  0  0  0  0  0  0  0  0  0
    2.5348  -48.6923  -22.8159 C   0  0  0  0  0  0  0  0  0  0  0  0
    3.1338  -47.4748  -22.4829 C   0  0  0  0  0  0  0  0  0  0  0  0
    4.2443  -47.0586  -23.1752 C   0  0  0  0  0  0  0  0  0  0  0  0
    4.8583  -45.8447  -22.8575 O   0  0  0  0  0  0  0  0  0  0  0  0
    4.7480  -47.8497  -24.1869 C   0  0  0  0  0  0  0  0  0  0  0  0
    4.1644  -49.0503  -24.5218 C   0  0  0  0  0  0  0  0  0  0  0  0
    5.5911  -45.7861  -22.1751 H   0  0  0  0  0  0  0  0  0  0  0  0
    0.6139  -50.6105  -17.1931 C   0  0  0  0  0  0  0  0  0  0  0  0
    0.1286  -49.3907  -17.1420 O   0  0  0  0  0  0  0  0  0  0  0  0
    1.5238  -50.9467  -16.1292 C   0  0  0  0  0  0  0  0  0  0  0  0
    2.8763  -51.0319  -16.5497 C   0  0  0  0  0  0  0  0  0  0  0  0
    3.1930  -50.7844  -17.8780 O   0  0  0  0  0  0  0  0  0  0  0  0
    3.8844  -51.3497  -15.6932 C   0  0  0  0  0  0  0  0  0  0  0  0
    3.5384  -51.5888  -14.3860 C   0  0  0  0  0  0  0  0  0  0  0  0
    2.2512  -51.5184  -13.9553 C   0  0  0  0  0  0  0  0  0  0  0  0
    1.1841  -51.1901  -14.8449 C   0  0  0  0  0  0  0  0  0  0  0  0
    4.1546  -50.8475  -18.1631 H   0  0  0  0  0  0  0  0  0  0  0  0
   -0.1575  -51.3625  -14.3352 C   0  0  0  0  0  0  0  0  0  0  0  0
   -0.7946  -50.3095  -13.9898 O   0  0  0  0  0  0  0  0  0  0  0  0
   -0.8302  -52.5202  -14.1654 O   0  0  0  0  0  0  0  0  0  0  0  0
   -1.6593  -52.6680  -13.6250 H   0  0  0  0  0  0  0  0  0  0  0  0
 20 21  2  0  0  0
 21 22  1  0  0  0
 22 15  1  0  0  0
 15 16  1  0  0  0
 16 17  1  0  0  0
 17 18  1  0  0  0
 18 19  1  0  0  0
 19 14  1  0  0  0
 14 13  1  0  0  0
 13 11  1  0  0  0
 11 12  2  0  0  0
 11  1  1  0  0  0
  1  2  2  0  0  0
  2  3  1  0  0  0
  3  4  1  0  0  0
  3  5  2  0  0  0
  5 32  1  0  0  0
 32 33  2  0  0  0
 32 34  1  0  0  0
 34 35  2  0  0  0
 35 36  1  0  0  0
 35 37  1  0  0  0
 37 38  2  0  0  0
 38 39  1  0  0  0
 39 40  2  0  0  0
 40 42  1  0  0  0
 42 43  2  0  0  0
 42 44  1  0  0  0
  5  6  1  0  0  0
  6  7  1  0  0  0
  6  8  2  0  0  0
 21 24  1  0  0  0
 24 25  2  0  0  0
 25 26  1  0  0  0
 26 27  2  0  0  0
 27 28  1  0  0  0
 27 29  1  0  0  0
 29 30  2  0  0  0
 19 15  1  0  0  0
  8  1  1  0  0  0
 30 24  1  0  0  0
 40 34  1  0  0  0
 22 23  1  0  0  0
  4  9  1  0  0  0
 36 41  1  0  0  0
 44 45  1  0  0  0
  7 10  1  0  0  0
 28 31  1  0  0  0
M  END
> <minimizedAffinity>
-8.54918

> <CNNscore>
0.4260255992

> <CNNaffinity>
6.2767286301

> <CNN_VS>
2.6740469933

> <CNNaffinity_variance>
0.1162612662

$$$$
[H]OC(=O)c1c([H])c([H])c([H])c(O[H])c1C(=O)c1c(O[H])c([H])c(C(=O)OC([H])([H])[C@]2([H])C([H])([H])C([H])([H])C([H])([H])[C@@]2([H])N([H])C(=O)c2c([H])c([H])c(O[H])c([H])c2[H])c([H])c1O[H]


 45 48  0  0  0  0  0  0  0  0999 V2000
   -0.6917  -52.9081  -20.6380 C   0  0  0  0  0  0  0  0  0  0  0  0
    0.1083  -51.8101  -20.7445 C   0  0  0  0  0  0  0  0  0  0  0  0
    0.5702  -51.1317  -19.6080 C   0  0  0  0  0  0  0  0  0  0  0  0
    1.3749  -50.0420  -19.8344 O   0  0  0  0  0  0  0  0  0  0  0  0
    0.2373  -51.5411  -18.3359 C   0  0  0  0  0  0  0  0  0  0  0  0
   -0.5869  -52.6708  -18.2359 C   0  0  0  0  0  0  0  0  0  0  0  0
   -1.0009  -53.1800  -16.9912 O   0  0  0  0  0  0  0  0  0  0  0  0
   -1.0232  -53.3163  -19.3685 C   0  0  0  0  0  0  0  0  0  0  0  0
    1.8318  -49.4316  -19.2247 H   0  0  0  0  0  0  0  0  0  0  0  0
   -1.5824  -53.9790  -16.9445 H   0  0  0  0  0  0  0  0  0  0  0  0
   -1.1844  -53.6361  -21.8296 C   0  0  0  0  0  0  0  0  0  0  0  0
   -1.8527  -54.6602  -21.6383 O   0  0  0  0  0  0  0  0  0  0  0  0
   -0.9212  -53.2103  -23.0477 O   0  0  0  0  0  0  0  0  0  0  0  0
   -0.2399  -53.5003  -24.1698 C   0  0  0  0  0  0  0  0  0  0  0  0
    1.3257  -52.7951  -25.8827 C   0  0  0  0  0  0  0  0  0  0  0  0
    0.8476  -52.9551  -27.3055 C   0  0  0  0  0  0  0  0  0  0  0  0
   -0.4924  -52.3141  -27.4273 C   0  0  0  0  0  0  0  0  0  0  0  0
   -0.9574  -51.9582  -26.0217 C   0  0  0  0  0  0  0  0  0  0  0  0
    0.0765  -52.3870  -25.0939 C   0  0  0  0  0  0  0  0  0  0  0  0
    3.4442  -53.0756  -24.1852 O   0  0  0  0  0  0  0  0  0  0  0  0
    3.4402  -52.0197  -24.8834 C   0  0  0  0  0  0  0  0  0  0  0  0
    2.3821  -51.8079  -25.7764 N   0  0  0  0  0  0  0  0  0  0  0  0
    2.3554  -50.9355  -26.3656 H   0  0  0  0  0  0  0  0  0  0  0  0
    4.5239  -51.0895  -24.7244 C   0  0  0  0  0  0  0  0  0  0  0  0
    5.6967  -51.4782  -24.1259 C   0  0  0  0  0  0  0  0  0  0  0  0
    6.7562  -50.5820  -23.9642 C   0  0  0  0  0  0  0  0  0  0  0  0
    6.6210  -49.2910  -24.4122 C   0  0  0  0  0  0  0  0  0  0  0  0
    7.6686  -48.3794  -24.2604 O   0  0  0  0  0  0  0  0  0  0  0  0
    5.4418  -48.9023  -25.0134 C   0  0  0  0  0  0  0  0  0  0  0  0
    4.3929  -49.7783  -25.1768 C   0  0  0  0  0  0  0  0  0  0  0  0
    8.3758  -48.2658  -24.9626 H   0  0  0  0  0  0  0  0  0  0  0  0
    0.5174  -50.8361  -17.1279 C   0  0  0  0  0  0  0  0  0  0  0  0
   -0.2229  -49.7594  -16.9902 O   0  0  0  0  0  0  0  0  0  0  0  0
    1.4311  -51.0870  -16.0439 C   0  0  0  0  0  0  0  0  0  0  0  0
    0.7829  -51.4036  -14.8220 C   0  0  0  0  0  0  0  0  0  0  0  0
   -0.6032  -51.4547  -14.7801 O   0  0  0  0  0  0  0  0  0  0  0  0
    1.4742  -51.6615  -13.6790 C   0  0  0  0  0  0  0  0  0  0  0  0
    2.8441  -51.6029  -13.7533 C   0  0  0  0  0  0  0  0  0  0  0  0
    3.4922  -51.2986  -14.9086 C   0  0  0  0  0  0  0  0  0  0  0  0
    2.7783  -51.0219  -16.1134 C   0  0  0  0  0  0  0  0  0  0  0  0
   -1.0502  -51.6805  -13.9087 H   0  0  0  0  0  0  0  0  0  0  0  0
    3.5513  -50.4945  -17.2152 C   0  0  0  0  0  0  0  0  0  0  0  0
    3.7339  -51.2586  -18.2235 O   0  0  0  0  0  0  0  0  0  0  0  0
    4.1240  -49.2761  -17.3090 O   0  0  0  0  0  0  0  0  0  0  0  0
    4.8264  -48.9828  -17.9586 H   0  0  0  0  0  0  0  0  0  0  0  0
 20 21  2  0  0  0
 21 22  1  0  0  0
 22 15  1  0  0  0
 15 16  1  0  0  0
 16 17  1  0  0  0
 17 18  1  0  0  0
 18 19  1  0  0  0
 19 14  1  0  0  0
 14 13  1  0  0  0
 13 11  1  0  0  0
 11 12  2  0  0  0
 11  1  1  0  0  0
  1  2  2  0  0  0
  2  3  1  0  0  0
  3  4  1  0  0  0
  3  5  2  0  0  0
  5 32  1  0  0  0
 32 33  2  0  0  0
 32 34  1  0  0  0
 34 35  2  0  0  0
 35 36  1  0  0  0
 35 37  1  0  0  0
 37 38  2  0  0  0
 38 39  1  0  0  0
 39 40  2  0  0  0
 40 42  1  0  0  0
 42 43  2  0  0  0
 42 44  1  0  0  0
  5  6  1  0  0  0
  6  7  1  0  0  0
  6  8  2  0  0  0
 21 24  1  0  0  0
 24 25  2  0  0  0
 25 26  1  0  0  0
 26 27  2  0  0  0
 27 28  1  0  0  0
 27 29  1  0  0  0
 29 30  2  0  0  0
 19 15  1  0  0  0
  8  1  1  0  0  0
 30 24  1  0  0  0
 40 34  1  0  0  0
 22 23  1  0  0  0
  4  9  1  0  0  0
 36 41  1  0  0  0
 44 45  1  0  0  0
  7 10  1  0  0  0
 28 31  1  0  0  0
M  END
> <minimizedAffinity>
-8.72578

> <CNNscore>
0.3728054464

> <CNNaffinity>
6.1840081215

> <CNN_VS>
2.3054318428

> <CNNaffinity_variance>
0.1072257310

$$$$
[H]OC(=O)c1c([H])c([H])c([H])c(O[H])c1C(=O)c1c(O[H])c([H])c(C(=O)OC([H])([H])[C@]2([H])C([H])([H])C([H])([H])C([H])([H])[C@@]2([H])N([H])C(=O)c2c([H])c([H])c(O[H])c([H])c2[H])c([H])c1O[H]


 45 48  0  0  0  0  0  0  0  0999 V2000
    4.1981  -49.6084  -23.9885 C   0  0  0  0  0  0  0  0  0  0  0  0
    4.1369  -49.5460  -25.3485 C   0  0  0  0  0  0  0  0  0  0  0  0
    3.4187  -50.4944  -26.0901 C   0  0  0  0  0  0  0  0  0  0  0  0
    3.4211  -50.3298  -27.4537 O   0  0  0  0  0  0  0  0  0  0  0  0
    2.7452  -51.5299  -25.4813 C   0  0  0  0  0  0  0  0  0  0  0  0
    2.8145  -51.5869  -24.0822 C   0  0  0  0  0  0  0  0  0  0  0  0
    2.1742  -52.6020  -23.3478 O   0  0  0  0  0  0  0  0  0  0  0  0
    3.5255  -50.6416  -23.3817 C   0  0  0  0  0  0  0  0  0  0  0  0
    2.9874  -50.8302  -28.1710 H   0  0  0  0  0  0  0  0  0  0  0  0
    2.2361  -52.6222  -22.3607 H   0  0  0  0  0  0  0  0  0  0  0  0
    4.9502  -48.6119  -23.1923 C   0  0  0  0  0  0  0  0  0  0  0  0
    5.4971  -47.6856  -23.8047 O   0  0  0  0  0  0  0  0  0  0  0  0
    5.0347  -48.7075  -21.8816 O   0  0  0  0  0  0  0  0  0  0  0  0
    4.9076  -48.0133  -20.7373 C   0  0  0  0  0  0  0  0  0  0  0  0
    3.4234  -49.3147  -19.3281 C   0  0  0  0  0  0  0  0  0  0  0  0
    3.4030  -48.9236  -17.8703 C   0  0  0  0  0  0  0  0  0  0  0  0
    3.1692  -47.4545  -17.7797 C   0  0  0  0  0  0  0  0  0  0  0  0
    3.2778  -46.8874  -19.1887 C   0  0  0  0  0  0  0  0  0  0  0  0
    3.5777  -47.9913  -20.0859 C   0  0  0  0  0  0  0  0  0  0  0  0
    3.3609  -52.0150  -19.7183 O   0  0  0  0  0  0  0  0  0  0  0  0
    2.2617  -51.4124  -19.8946 C   0  0  0  0  0  0  0  0  0  0  0  0
    2.2192  -50.0242  -19.7132 N   0  0  0  0  0  0  0  0  0  0  0  0
    1.3169  -49.5005  -19.8572 H   0  0  0  0  0  0  0  0  0  0  0  0
    1.1103  -52.1847  -20.2727 C   0  0  0  0  0  0  0  0  0  0  0  0
    1.1030  -53.5490  -20.1203 C   0  0  0  0  0  0  0  0  0  0  0  0
   -0.0100  -54.3101  -20.4863 C   0  0  0  0  0  0  0  0  0  0  0  0
   -1.1145  -53.6817  -21.0066 C   0  0  0  0  0  0  0  0  0  0  0  0
   -2.2376  -54.4245  -21.3785 O   0  0  0  0  0  0  0  0  0  0  0  0
   -1.1051  -52.3107  -21.1589 C   0  0  0  0  0  0  0  0  0  0  0  0
   -0.0133  -51.5529  -20.8012 C   0  0  0  0  0  0  0  0  0  0  0  0
   -2.9815  -54.6160  -20.7334 H   0  0  0  0  0  0  0  0  0  0  0  0
    2.1241  -52.6303  -26.1433 C   0  0  0  0  0  0  0  0  0  0  0  0
    2.8014  -53.7477  -26.0062 O   0  0  0  0  0  0  0  0  0  0  0  0
    0.9086  -52.7472  -26.9060 C   0  0  0  0  0  0  0  0  0  0  0  0
    1.1151  -52.6878  -28.3086 C   0  0  0  0  0  0  0  0  0  0  0  0
    2.4043  -52.5427  -28.8013 O   0  0  0  0  0  0  0  0  0  0  0  0
    0.0885  -52.7684  -29.1977 C   0  0  0  0  0  0  0  0  0  0  0  0
   -1.1746  -52.9115  -28.6788 C   0  0  0  0  0  0  0  0  0  0  0  0
   -1.4033  -52.9675  -27.3402 C   0  0  0  0  0  0  0  0  0  0  0  0
   -0.3353  -52.8799  -26.3970 C   0  0  0  0  0  0  0  0  0  0  0  0
    2.5373  -52.5025  -29.7966 H   0  0  0  0  0  0  0  0  0  0  0  0
   -0.7103  -52.7253  -25.0096 C   0  0  0  0  0  0  0  0  0  0  0  0
   -1.2199  -53.7398  -24.4222 O   0  0  0  0  0  0  0  0  0  0  0  0
   -0.5970  -51.6186  -24.2455 O   0  0  0  0  0  0  0  0  0  0  0  0
   -1.0406  -51.4383  -23.3669 H   0  0  0  0  0  0  0  0  0  0  0  0
 20 21  2  0  0  0
 21 22  1  0  0  0
 22 15  1  0  0  0
 15 16  1  0  0  0
 16 17  1  0  0  0
 17 18  1  0  0  0
 18 19  1  0  0  0
 19 14  1  0  0  0
 14 13  1  0  0  0
 13 11  1  0  0  0
 11 12  2  0  0  0
 11  1  1  0  0  0
  1  2  2  0  0  0
  2  3  1  0  0  0
  3  4  1  0  0  0
  3  5  2  0  0  0
  5 32  1  0  0  0
 32 33  2  0  0  0
 32 34  1  0  0  0
 34 35  2  0  0  0
 35 36  1  0  0  0
 35 37  1  0  0  0
 37 38  2  0  0  0
 38 39  1  0  0  0
 39 40  2  0  0  0
 40 42  1  0  0  0
 42 43  2  0  0  0
 42 44  1  0  0  0
  5  6  1  0  0  0
  6  7  1  0  0  0
  6  8  2  0  0  0
 21 24  1  0  0  0
 24 25  2  0  0  0
 25 26  1  0  0  0
 26 27  2  0  0  0
 27 28  1  0  0  0
 27 29  1  0  0  0
 29 30  2  0  0  0
 19 15  1  0  0  0
  8  1  1  0  0  0
 30 24  1  0  0  0
 40 34  1  0  0  0
 22 23  1  0  0  0
  4  9  1  0  0  0
 36 41  1  0  0  0
 44 45  1  0  0  0
  7 10  1  0  0  0
 28 31  1  0  0  0
M  END
> <minimizedAffinity>
-8.33322

> <CNNscore>
0.3543698490

> <CNNaffinity>
6.0664615631

> <CNN_VS>
2.1497709751

> <CNNaffinity_variance>
0.1929786950

$$$$
[H]OC(=O)C([H])([H])C([H])([H])c1c2c(n([H])c1C([H])=C1C(=O)N([H])c3c([H])c([H])c(S(=O)(=O)N([H])C([H])([H])[H])c([H])c31)C([H])([H])C([H])([H])C([H])([H])C2=O


 35 38  0  0  0  0  0  0  0  0999 V2000
    1.0528  -53.3281  -25.7587 C   0  0  0  0  0  0  0  0  0  0  0  0
    0.2580  -54.3698  -26.1869 C   0  0  0  0  0  0  0  0  0  0  0  0
   -0.6106  -55.0020  -25.3310 C   0  0  0  0  0  0  0  0  0  0  0  0
   -0.7285  -54.6188  -23.9890 C   0  0  0  0  0  0  0  0  0  0  0  0
    0.0626  -53.5793  -23.5557 C   0  0  0  0  0  0  0  0  0  0  0  0
    0.9331  -52.9607  -24.4520 C   0  0  0  0  0  0  0  0  0  0  0  0
   -0.1871  -53.3011  -22.1260 C   0  0  0  0  0  0  0  0  0  0  0  0
    0.3796  -52.3607  -21.4147 C   0  0  0  0  0  0  0  0  0  0  0  0
   -1.2017  -54.2803  -21.7694 C   0  0  0  0  0  0  0  0  0  0  0  0
   -1.7423  -54.4365  -20.6446 O   0  0  0  0  0  0  0  0  0  0  0  0
   -1.5254  -55.0831  -22.9195 N   0  0  0  0  0  0  0  0  0  0  0  0
   -2.2097  -55.8599  -22.9770 H   0  0  0  0  0  0  0  0  0  0  0  0
    0.1569  -52.0684  -20.0126 C   0  0  0  0  0  0  0  0  0  0  0  0
   -0.3599  -52.7672  -19.0040 N   0  0  0  0  0  0  0  0  0  0  0  0
   -0.3789  -52.0459  -17.8665 C   0  0  0  0  0  0  0  0  0  0  0  0
    0.1544  -50.8034  -18.1349 C   0  0  0  0  0  0  0  0  0  0  0  0
    0.4869  -50.8212  -19.4713 C   0  0  0  0  0  0  0  0  0  0  0  0
    0.2371  -49.8445  -17.0478 C   0  0  0  0  0  0  0  0  0  0  0  0
    1.1471  -48.9817  -17.1013 O   0  0  0  0  0  0  0  0  0  0  0  0
   -0.7078  -49.8560  -15.8960 C   0  0  0  0  0  0  0  0  0  0  0  0
   -1.6469  -51.0590  -16.0612 C   0  0  0  0  0  0  0  0  0  0  0  0
   -0.8266  -52.2916  -16.4614 C   0  0  0  0  0  0  0  0  0  0  0  0
   -0.6960  -53.7341  -19.0365 H   0  0  0  0  0  0  0  0  0  0  0  0
    1.0931  -49.6909  -20.1750 C   0  0  0  0  0  0  0  0  0  0  0  0
    2.6050  -49.7134  -20.1918 C   0  0  0  0  0  0  0  0  0  0  0  0
    3.0633  -48.3155  -20.0445 C   0  0  0  0  0  0  0  0  0  0  0  0
    4.0443  -47.8877  -20.6814 O   0  0  0  0  0  0  0  0  0  0  0  0
    2.3928  -47.4679  -19.1859 O   0  0  0  0  0  0  0  0  0  0  0  0
    2.2759  -47.6435  -18.1967 H   0  0  0  0  0  0  0  0  0  0  0  0
    2.1564  -52.5013  -26.8209 S   0  0  0  0  0  0  0  0  0  0  0  0
    1.4889  -52.3988  -28.1637 O   0  0  0  0  0  0  0  0  0  0  0  0
    3.4201  -53.2667  -26.9892 O   0  0  0  0  0  0  0  0  0  0  0  0
    3.6984  -50.8655  -25.4535 C   0  0  0  0  0  0  0  0  0  0  0  0
    2.5207  -50.9068  -26.3003 N   0  0  0  0  0  0  0  0  0  0  0  0
    1.7236  -50.3970  -25.9137 H   0  0  0  0  0  0  0  0  0  0  0  0
 33 34  1  0  0  0
 34 30  1  0  0  0
 30 31  2  0  0  0
 30 32  2  0  0  0
 30  1  1  0  0  0
  1  2  2  0  0  0
  2  3  1  0  0  0
  3  4  2  0  0  0
  4  5  1  0  0  0
  5  6  2  0  0  0
  5  7  1  0  0  0
  7  8  2  0  0  0
  8 13  1  0  0  0
 13 14  1  0  0  0
 14 15  1  0  0  0
 15 16  2  0  0  0
 16 17  1  0  0  0
 17 24  1  0  0  0
 24 25  1  0  0  0
 25 26  1  0  0  0
 26 27  2  0  0  0
 26 28  1  0  0  0
 16 18  1  0  0  0
 18 19  2  0  0  0
 18 20  1  0  0  0
 20 21  1  0  0  0
 21 22  1  0  0  0
  7  9  1  0  0  0
  9 10  2  0  0  0
  9 11  1  0  0  0
  6  1  1  0  0  0
 17 13  2  0  0  0
 11  4  1  0  0  0
 22 15  1  0  0  0
 34 35  1  0  0  0
 14 23  1  0  0  0
 28 29  1  0  0  0
 11 12  1  0  0  0
M  END
> <minimizedAffinity>
-8.96100

> <CNNscore>
0.7642662525

> <CNNaffinity>
6.8823595047

> <CNN_VS>
5.2599549294

> <CNNaffinity_variance>
0.2037750781

$$$$
[H]OC(=O)C([H])([H])C([H])([H])c1c2c(n([H])c1C([H])=C1C(=O)N([H])c3c([H])c([H])c(S(=O)(=O)N([H])C([H])([H])[H])c([H])c31)C([H])([H])C([H])([H])C([H])([H])C2=O


 35 38  0  0  0  0  0  0  0  0999 V2000
    0.3591  -50.7375  -17.4654 C   0  0  0  0  0  0  0  0  0  0  0  0
   -0.3794  -51.6698  -16.7686 C   0  0  0  0  0  0  0  0  0  0  0  0
   -1.0129  -52.7039  -17.4137 C   0  0  0  0  0  0  0  0  0  0  0  0
   -0.9378  -52.8581  -18.8038 C   0  0  0  0  0  0  0  0  0  0  0  0
   -0.2020  -51.9302  -19.5048 C   0  0  0  0  0  0  0  0  0  0  0  0
    0.4276  -50.8935  -18.8173 C   0  0  0  0  0  0  0  0  0  0  0  0
   -0.2219  -52.2396  -20.9497 C   0  0  0  0  0  0  0  0  0  0  0  0
    0.3983  -51.5718  -21.8882 C   0  0  0  0  0  0  0  0  0  0  0  0
   -1.0412  -53.4392  -21.0212 C   0  0  0  0  0  0  0  0  0  0  0  0
   -1.3475  -54.0874  -22.0545 O   0  0  0  0  0  0  0  0  0  0  0  0
   -1.4751  -53.8088  -19.6994 N   0  0  0  0  0  0  0  0  0  0  0  0
   -2.0691  -54.6149  -19.4304 H   0  0  0  0  0  0  0  0  0  0  0  0
    0.3930  -51.8500  -23.3108 C   0  0  0  0  0  0  0  0  0  0  0  0
   -0.5050  -52.3876  -24.1337 N   0  0  0  0  0  0  0  0  0  0  0  0
   -0.0334  -52.4617  -25.3934 C   0  0  0  0  0  0  0  0  0  0  0  0
    1.2445  -51.9451  -25.4064 C   0  0  0  0  0  0  0  0  0  0  0  0
    1.5063  -51.5652  -24.1087 C   0  0  0  0  0  0  0  0  0  0  0  0
    1.9602  -51.9208  -26.6695 C   0  0  0  0  0  0  0  0  0  0  0  0
    2.8274  -51.0276  -26.8294 O   0  0  0  0  0  0  0  0  0  0  0  0
    1.6997  -52.9054  -27.7568 C   0  0  0  0  0  0  0  0  0  0  0  0
    0.5444  -53.8129  -27.3120 C   0  0  0  0  0  0  0  0  0  0  0  0
   -0.5688  -52.9537  -26.6997 C   0  0  0  0  0  0  0  0  0  0  0  0
   -1.4488  -52.7021  -23.8905 H   0  0  0  0  0  0  0  0  0  0  0  0
    2.7650  -50.9580  -23.6759 C   0  0  0  0  0  0  0  0  0  0  0  0
    2.8059  -49.4533  -23.8197 C   0  0  0  0  0  0  0  0  0  0  0  0
    2.7498  -48.8835  -22.4566 C   0  0  0  0  0  0  0  0  0  0  0  0
    3.2044  -49.5056  -21.4781 O   0  0  0  0  0  0  0  0  0  0  0  0
    2.1835  -47.6397  -22.2633 O   0  0  0  0  0  0  0  0  0  0  0  0
    1.2307  -47.4086  -22.5115 H   0  0  0  0  0  0  0  0  0  0  0  0
    1.1805  -49.4215  -16.6759 S   0  0  0  0  0  0  0  0  0  0  0  0
    2.1711  -48.8619  -17.6582 O   0  0  0  0  0  0  0  0  0  0  0  0
    1.9291  -49.8914  -15.4802 O   0  0  0  0  0  0  0  0  0  0  0  0
   -0.9941  -48.6220  -15.4287 C   0  0  0  0  0  0  0  0  0  0  0  0
    0.1240  -48.1470  -16.2225 N   0  0  0  0  0  0  0  0  0  0  0  0
   -0.1546  -47.5359  -16.9931 H   0  0  0  0  0  0  0  0  0  0  0  0
 33 34  1  0  0  0
 34 30  1  0  0  0
 30 31  2  0  0  0
 30 32  2  0  0  0
 30  1  1  0  0  0
  1  2  2  0  0  0
  2  3  1  0  0  0
  3  4  2  0  0  0
  4  5  1  0  0  0
  5  6  2  0  0  0
  5  7  1  0  0  0
  7  8  2  0  0  0
  8 13  1  0  0  0
 13 14  1  0  0  0
 14 15  1  0  0  0
 15 16  2  0  0  0
 16 17  1  0  0  0
 17 24  1  0  0  0
 24 25  1  0  0  0
 25 26  1  0  0  0
 26 27  2  0  0  0
 26 28  1  0  0  0
 16 18  1  0  0  0
 18 19  2  0  0  0
 18 20  1  0  0  0
 20 21  1  0  0  0
 21 22  1  0  0  0
  7  9  1  0  0  0
  9 10  2  0  0  0
  9 11  1  0  0  0
  6  1  1  0  0  0
 17 13  2  0  0  0
 11  4  1  0  0  0
 22 15  1  0  0  0
 34 35  1  0  0  0
 14 23  1  0  0  0
 28 29  1  0  0  0
 11 12  1  0  0  0
M  END
> <minimizedAffinity>
-8.15780

> <CNNscore>
0.7480892539

> <CNNaffinity>
6.7444009781

> <CNN_VS>
5.0454139709

> <CNNaffinity_variance>
0.1053655371

$$$$
[H]OC(=O)C([H])([H])C([H])([H])c1c2c(n([H])c1C([H])=C1C(=O)N([H])c3c([H])c([H])c(S(=O)(=O)N([H])C([H])([H])[H])c([H])c31)C([H])([H])C([H])([H])C([H])([H])C2=O


 35 38  0  0  0  0  0  0  0  0999 V2000
    1.3546  -50.6596  -16.9856 C   0  0  0  0  0  0  0  0  0  0  0  0
    0.4627  -51.0959  -16.0294 C   0  0  0  0  0  0  0  0  0  0  0  0
   -0.5593  -51.9568  -16.3479 C   0  0  0  0  0  0  0  0  0  0  0  0
   -0.7412  -52.4292  -17.6538 C   0  0  0  0  0  0  0  0  0  0  0  0
    0.1462  -51.9970  -18.6128 C   0  0  0  0  0  0  0  0  0  0  0  0
    1.1714  -51.1231  -18.2538 C   0  0  0  0  0  0  0  0  0  0  0  0
   -0.1830  -52.5895  -19.9260 C   0  0  0  0  0  0  0  0  0  0  0  0
    0.4772  -52.4057  -21.0403 C   0  0  0  0  0  0  0  0  0  0  0  0
   -1.3490  -53.4096  -19.6375 C   0  0  0  0  0  0  0  0  0  0  0  0
   -1.9961  -54.1195  -20.4492 O   0  0  0  0  0  0  0  0  0  0  0  0
   -1.6825  -53.3031  -18.2412 N   0  0  0  0  0  0  0  0  0  0  0  0
   -2.4605  -53.7692  -17.7388 H   0  0  0  0  0  0  0  0  0  0  0  0
    0.1751  -52.9699  -22.3408 C   0  0  0  0  0  0  0  0  0  0  0  0
   -0.3712  -54.1185  -22.7345 N   0  0  0  0  0  0  0  0  0  0  0  0
   -0.4228  -54.2022  -24.0779 C   0  0  0  0  0  0  0  0  0  0  0  0
    0.1172  -53.0476  -24.6028 C   0  0  0  0  0  0  0  0  0  0  0  0
    0.4879  -52.2831  -23.5189 C   0  0  0  0  0  0  0  0  0  0  0  0
    0.1687  -52.9111  -26.0474 C   0  0  0  0  0  0  0  0  0  0  0  0
    0.1344  -51.7503  -26.5235 O   0  0  0  0  0  0  0  0  0  0  0  0
    0.2595  -54.0851  -26.9602 C   0  0  0  0  0  0  0  0  0  0  0  0
    0.2008  -55.3592  -26.1061 C   0  0  0  0  0  0  0  0  0  0  0  0
   -0.9119  -55.2178  -25.0599 C   0  0  0  0  0  0  0  0  0  0  0  0
   -0.7347  -54.8628  -22.1322 H   0  0  0  0  0  0  0  0  0  0  0  0
    1.1060  -50.9615  -23.6274 C   0  0  0  0  0  0  0  0  0  0  0  0
    2.6139  -50.9744  -23.5162 C   0  0  0  0  0  0  0  0  0  0  0  0
    3.1509  -51.1085  -24.8872 C   0  0  0  0  0  0  0  0  0  0  0  0
    4.0362  -51.9426  -25.1546 O   0  0  0  0  0  0  0  0  0  0  0  0
    2.6632  -50.2952  -25.8901 O   0  0  0  0  0  0  0  0  0  0  0  0
    2.6972  -49.2847  -25.8638 H   0  0  0  0  0  0  0  0  0  0  0  0
    2.6647  -49.5763  -16.6116 S   0  0  0  0  0  0  0  0  0  0  0  0
    2.9549  -49.7192  -15.1437 O   0  0  0  0  0  0  0  0  0  0  0  0
    2.2879  -48.1620  -16.8736 O   0  0  0  0  0  0  0  0  0  0  0  0
    4.2943  -49.0927  -18.6201 C   0  0  0  0  0  0  0  0  0  0  0  0
    4.1073  -49.9492  -17.4637 N   0  0  0  0  0  0  0  0  0  0  0  0
    4.2309  -50.9428  -17.6691 H   0  0  0  0  0  0  0  0  0  0  0  0
 33 34  1  0  0  0
 34 30  1  0  0  0
 30 31  2  0  0  0
 30 32  2  0  0  0
 30  1  1  0  0  0
  1  2  2  0  0  0
  2  3  1  0  0  0
  3  4  2  0  0  0
  4  5  1  0  0  0
  5  6  2  0  0  0
  5  7  1  0  0  0
  7  8  2  0  0  0
  8 13  1  0  0  0
 13 14  1  0  0  0
 14 15  1  0  0  0
 15 16  2  0  0  0
 16 17  1  0  0  0
 17 24  1  0  0  0
 24 25  1  0  0  0
 25 26  1  0  0  0
 26 27  2  0  0  0
 26 28  1  0  0  0
 16 18  1  0  0  0
 18 19  2  0  0  0
 18 20  1  0  0  0
 20 21  1  0  0  0
 21 22  1  0  0  0
  7  9  1  0  0  0
  9 10  2  0  0  0
  9 11  1  0  0  0
  6  1  1  0  0  0
 17 13  2  0  0  0
 11  4  1  0  0  0
 22 15  1  0  0  0
 34 35  1  0  0  0
 14 23  1  0  0  0
 28 29  1  0  0  0
 11 12  1  0  0  0
M  END
> <minimizedAffinity>
-7.62844

> <CNNscore>
0.7118158937

> <CNNaffinity>
6.8405623436

> <CNN_VS>
4.8692212105

> <CNNaffinity_variance>
0.2404594719

$$$$
[H]OC(=O)C([H])([H])C([H])([H])c1c2c(n([H])c1C([H])=C1C(=O)N([H])c3c([H])c([H])c(S(=O)(=O)N([H])C([H])([H])[H])c([H])c31)C([H])([H])C([H])([H])C([H])([H])C2=O


 35 38  0  0  0  0  0  0  0  0999 V2000
    3.4432  -51.7121  -23.0922 C   0  0  0  0  0  0  0  0  0  0  0  0
    2.9228  -52.2061  -24.2692 C   0  0  0  0  0  0  0  0  0  0  0  0
    1.6601  -52.7447  -24.3195 C   0  0  0  0  0  0  0  0  0  0  0  0
    0.8463  -52.8161  -23.1818 C   0  0  0  0  0  0  0  0  0  0  0  0
    1.3606  -52.3245  -22.0038 C   0  0  0  0  0  0  0  0  0  0  0  0
    2.6462  -51.7851  -21.9894 C   0  0  0  0  0  0  0  0  0  0  0  0
    0.3781  -52.4715  -20.9099 C   0  0  0  0  0  0  0  0  0  0  0  0
    0.5409  -52.0817  -19.6717 C   0  0  0  0  0  0  0  0  0  0  0  0
   -0.7592  -53.0966  -21.5666 C   0  0  0  0  0  0  0  0  0  0  0  0
   -1.8541  -53.4216  -21.0401 O   0  0  0  0  0  0  0  0  0  0  0  0
   -0.4603  -53.3037  -22.9594 N   0  0  0  0  0  0  0  0  0  0  0  0
   -1.0714  -53.7278  -23.6817 H   0  0  0  0  0  0  0  0  0  0  0  0
   -0.4024  -52.2166  -18.5795 C   0  0  0  0  0  0  0  0  0  0  0  0
   -1.5558  -52.8675  -18.4429 N   0  0  0  0  0  0  0  0  0  0  0  0
   -2.0900  -52.6680  -17.2225 C   0  0  0  0  0  0  0  0  0  0  0  0
   -1.2457  -51.8419  -16.5121 C   0  0  0  0  0  0  0  0  0  0  0  0
   -0.1965  -51.5632  -17.3596 C   0  0  0  0  0  0  0  0  0  0  0  0
   -1.6192  -51.4846  -15.1552 C   0  0  0  0  0  0  0  0  0  0  0  0
   -0.6951  -51.2210  -14.3478 O   0  0  0  0  0  0  0  0  0  0  0  0
   -3.0381  -51.4234  -14.7048 C   0  0  0  0  0  0  0  0  0  0  0  0
   -3.9289  -51.8708  -15.8721 C   0  0  0  0  0  0  0  0  0  0  0  0
   -3.3269  -53.1249  -16.5180 C   0  0  0  0  0  0  0  0  0  0  0  0
   -2.0080  -53.4667  -19.1395 H   0  0  0  0  0  0  0  0  0  0  0  0
    0.9390  -50.7142  -16.9986 C   0  0  0  0  0  0  0  0  0  0  0  0
    0.6434  -49.2323  -17.0529 C   0  0  0  0  0  0  0  0  0  0  0  0
    1.3366  -48.6074  -15.9062 C   0  0  0  0  0  0  0  0  0  0  0  0
    2.2908  -47.8255  -16.0772 O   0  0  0  0  0  0  0  0  0  0  0  0
    0.9197  -48.8948  -14.6221 O   0  0  0  0  0  0  0  0  0  0  0  0
    0.8949  -49.8277  -14.2323 H   0  0  0  0  0  0  0  0  0  0  0  0
    5.0357  -51.0158  -22.9982 S   0  0  0  0  0  0  0  0  0  0  0  0
    4.8989  -49.5498  -23.3008 O   0  0  0  0  0  0  0  0  0  0  0  0
    5.9476  -51.6140  -24.0088 O   0  0  0  0  0  0  0  0  0  0  0  0
    5.5380  -49.9666  -20.6380 C   0  0  0  0  0  0  0  0  0  0  0  0
    5.7395  -51.1596  -21.4393 N   0  0  0  0  0  0  0  0  0  0  0  0
    6.7070  -51.4891  -21.4422 H   0  0  0  0  0  0  0  0  0  0  0  0
 33 34  1  0  0  0
 34 30  1  0  0  0
 30 31  2  0  0  0
 30 32  2  0  0  0
 30  1  1  0  0  0
  1  2  2  0  0  0
  2  3  1  0  0  0
  3  4  2  0  0  0
  4  5  1  0  0  0
  5  6  2  0  0  0
  5  7  1  0  0  0
  7  8  2  0  0  0
  8 13  1  0  0  0
 13 14  1  0  0  0
 14 15  1  0  0  0
 15 16  2  0  0  0
 16 17  1  0  0  0
 17 24  1  0  0  0
 24 25  1  0  0  0
 25 26  1  0  0  0
 26 27  2  0  0  0
 26 28  1  0  0  0
 16 18  1  0  0  0
 18 19  2  0  0  0
 18 20  1  0  0  0
 20 21  1  0  0  0
 21 22  1  0  0  0
  7  9  1  0  0  0
  9 10  2  0  0  0
  9 11  1  0  0  0
  6  1  1  0  0  0
 17 13  2  0  0  0
 11  4  1  0  0  0
 22 15  1  0  0  0
 34 35  1  0  0  0
 14 23  1  0  0  0
 28 29  1  0  0  0
 11 12  1  0  0  0
M  END
> <minimizedAffinity>
-7.21014

> <CNNscore>
0.4345384240

> <CNNaffinity>
6.2741775513

> <CNN_VS>
2.7263712883

> <CNNaffinity_variance>
0.2073113024

$$$$
[H]OC(=O)C([H])([H])C([H])([H])c1c2c(n([H])c1C([H])=C1C(=O)N([H])c3c([H])c([H])c(S(=O)(=O)N([H])C([H])([H])[H])c([H])c31)C([H])([H])C([H])([H])C([H])([H])C2=O


 35 38  0  0  0  0  0  0  0  0999 V2000
    0.9399  -51.1588  -19.7013 C   0  0  0  0  0  0  0  0  0  0  0  0
    0.7211  -52.2943  -18.9511 C   0  0  0  0  0  0  0  0  0  0  0  0
    0.2095  -53.4358  -19.5185 C   0  0  0  0  0  0  0  0  0  0  0  0
   -0.1118  -53.4985  -20.8803 C   0  0  0  0  0  0  0  0  0  0  0  0
    0.1044  -52.3678  -21.6344 C   0  0  0  0  0  0  0  0  0  0  0  0
    0.6247  -51.2268  -21.0253 C   0  0  0  0  0  0  0  0  0  0  0  0
   -0.2808  -52.6037  -23.0415 C   0  0  0  0  0  0  0  0  0  0  0  0
   -0.1765  -51.7442  -24.0222 C   0  0  0  0  0  0  0  0  0  0  0  0
   -0.7420  -53.9830  -23.0329 C   0  0  0  0  0  0  0  0  0  0  0  0
   -1.1741  -54.6440  -24.0117 O   0  0  0  0  0  0  0  0  0  0  0  0
   -0.6344  -54.5213  -21.7021 N   0  0  0  0  0  0  0  0  0  0  0  0
   -0.8860  -55.4751  -21.3828 H   0  0  0  0  0  0  0  0  0  0  0  0
   -0.5494  -51.9470  -25.4082 C   0  0  0  0  0  0  0  0  0  0  0  0
   -1.6970  -51.8285  -26.0728 N   0  0  0  0  0  0  0  0  0  0  0  0
   -1.5481  -52.1563  -27.3709 C   0  0  0  0  0  0  0  0  0  0  0  0
   -0.2320  -52.5100  -27.5780 C   0  0  0  0  0  0  0  0  0  0  0  0
    0.3865  -52.3783  -26.3545 C   0  0  0  0  0  0  0  0  0  0  0  0
    0.1681  -52.9055  -28.9166 C   0  0  0  0  0  0  0  0  0  0  0  0
    1.3626  -52.7097  -29.2483 O   0  0  0  0  0  0  0  0  0  0  0  0
   -0.7794  -53.5240  -29.8858 C   0  0  0  0  0  0  0  0  0  0  0  0
   -2.1697  -53.5616  -29.2363 C   0  0  0  0  0  0  0  0  0  0  0  0
   -2.4508  -52.2133  -28.5612 C   0  0  0  0  0  0  0  0  0  0  0  0
   -2.5957  -51.5165  -25.6938 H   0  0  0  0  0  0  0  0  0  0  0  0
    1.8050  -52.6531  -26.1250 C   0  0  0  0  0  0  0  0  0  0  0  0
    2.7079  -51.4600  -26.3430 C   0  0  0  0  0  0  0  0  0  0  0  0
    3.3670  -51.1706  -25.0515 C   0  0  0  0  0  0  0  0  0  0  0  0
    4.2926  -51.8864  -24.6249 O   0  0  0  0  0  0  0  0  0  0  0  0
    2.9501  -50.0877  -24.3039 O   0  0  0  0  0  0  0  0  0  0  0  0
    2.0043  -49.9648  -23.9674 H   0  0  0  0  0  0  0  0  0  0  0  0
    1.5950  -49.7002  -19.0135 S   0  0  0  0  0  0  0  0  0  0  0  0
    0.9226  -49.4936  -17.6852 O   0  0  0  0  0  0  0  0  0  0  0  0
    1.3019  -48.5201  -19.8693 O   0  0  0  0  0  0  0  0  0  0  0  0
    3.5954  -50.5329  -17.5206 C   0  0  0  0  0  0  0  0  0  0  0  0
    3.2853  -49.7929  -18.7298 N   0  0  0  0  0  0  0  0  0  0  0  0
    3.7736  -48.8973  -18.7952 H   0  0  0  0  0  0  0  0  0  0  0  0
 33 34  1  0  0  0
 34 30  1  0  0  0
 30 31  2  0  0  0
 30 32  2  0  0  0
 30  1  1  0  0  0
  1  2  2  0  0  0
  2  3  1  0  0  0
  3  4  2  0  0  0
  4  5  1  0  0  0
  5  6  2  0  0  0
  5  7  1  0  0  0
  7  8  2  0  0  0
  8 13  1  0  0  0
 13 14  1  0  0  0
 14 15  1  0  0  0
 15 16  2  0  0  0
 16 17  1  0  0  0
 17 24  1  0  0  0
 24 25  1  0  0  0
 25 26  1  0  0  0
 26 27  2  0  0  0
 26 28  1  0  0  0
 16 18  1  0  0  0
 18 19  2  0  0  0
 18 20  1  0  0  0
 20 21  1  0  0  0
 21 22  1  0  0  0
  7  9  1  0  0  0
  9 10  2  0  0  0
  9 11  1  0  0  0
  6  1  1  0  0  0
 17 13  2  0  0  0
 11  4  1  0  0  0
 22 15  1  0  0  0
 34 35  1  0  0  0
 14 23  1  0  0  0
 28 29  1  0  0  0
 11 12  1  0  0  0
M  END
> <minimizedAffinity>
-7.09927

> <CNNscore>
0.4102868438

> <CNNaffinity>
6.5511827469

> <CNN_VS>
2.6878640652

> <CNNaffinity_variance>
0.2469528615

$$$$
[H]OC(=O)C([H])([H])C([H])([H])c1c2c(n([H])c1C([H])=C1C(=O)N([H])c3c([H])c([H])c(S(=O)(=O)N([H])C([H])([H])[H])c([H])c31)C([H])([H])C([H])([H])C([H])([H])C2=O


 35 38  0  0  0  0  0  0  0  0999 V2000
    1.8991  -52.3756  -24.6567 C   0  0  0  0  0  0  0  0  0  0  0  0
    1.0863  -53.3007  -25.2760 C   0  0  0  0  0  0  0  0  0  0  0  0
    0.0460  -53.8971  -24.6060 C   0  0  0  0  0  0  0  0  0  0  0  0
   -0.2358  -53.5938  -23.2680 C   0  0  0  0  0  0  0  0  0  0  0  0
    0.5724  -52.6710  -22.6444 C   0  0  0  0  0  0  0  0  0  0  0  0
    1.6194  -52.0856  -23.3550 C   0  0  0  0  0  0  0  0  0  0  0  0
    0.1383  -52.4645  -21.2470 C   0  0  0  0  0  0  0  0  0  0  0  0
    0.6751  -51.6356  -20.3890 C   0  0  0  0  0  0  0  0  0  0  0  0
   -1.0026  -53.3573  -21.1183 C   0  0  0  0  0  0  0  0  0  0  0  0
   -1.7170  -53.5323  -20.0981 O   0  0  0  0  0  0  0  0  0  0  0  0
   -1.2223  -54.0451  -22.3637 N   0  0  0  0  0  0  0  0  0  0  0  0
   -1.9578  -54.7430  -22.5802 H   0  0  0  0  0  0  0  0  0  0  0  0
    0.2729  -51.4160  -19.0138 C   0  0  0  0  0  0  0  0  0  0  0  0
   -0.4172  -52.1415  -18.1362 N   0  0  0  0  0  0  0  0  0  0  0  0
   -0.5580  -51.4910  -16.9651 C   0  0  0  0  0  0  0  0  0  0  0  0
    0.0730  -50.2701  -17.0715 C   0  0  0  0  0  0  0  0  0  0  0  0
    0.5890  -50.2270  -18.3476 C   0  0  0  0  0  0  0  0  0  0  0  0
    0.0525  -49.3862  -15.9197 C   0  0  0  0  0  0  0  0  0  0  0  0
    1.0054  -48.5800  -15.7883 O   0  0  0  0  0  0  0  0  0  0  0  0
   -1.0446  -49.4091  -14.9119 C   0  0  0  0  0  0  0  0  0  0  0  0
   -2.0135  -50.5391  -15.2870 C   0  0  0  0  0  0  0  0  0  0  0  0
   -1.2116  -51.7937  -15.6550 C   0  0  0  0  0  0  0  0  0  0  0  0
   -0.7961  -53.0818  -18.2812 H   0  0  0  0  0  0  0  0  0  0  0  0
    1.3475  -49.0959  -18.8819 C   0  0  0  0  0  0  0  0  0  0  0  0
    2.8354  -49.3444  -18.9858 C   0  0  0  0  0  0  0  0  0  0  0  0
    3.5026  -48.3765  -18.0891 C   0  0  0  0  0  0  0  0  0  0  0  0
    3.3167  -47.1510  -18.2098 O   0  0  0  0  0  0  0  0  0  0  0  0
    4.3472  -48.8381  -17.0997 O   0  0  0  0  0  0  0  0  0  0  0  0
    5.1696  -49.3997  -17.2764 H   0  0  0  0  0  0  0  0  0  0  0  0
    3.2192  -51.5962  -25.4811 S   0  0  0  0  0  0  0  0  0  0  0  0
    3.4432  -50.2707  -24.8087 O   0  0  0  0  0  0  0  0  0  0  0  0
    2.8898  -51.3415  -26.9085 O   0  0  0  0  0  0  0  0  0  0  0  0
    5.4376  -52.1614  -24.1838 C   0  0  0  0  0  0  0  0  0  0  0  0
    4.6868  -52.4811  -25.3837 N   0  0  0  0  0  0  0  0  0  0  0  0
    5.2512  -52.4566  -26.2355 H   0  0  0  0  0  0  0  0  0  0  0  0
 33 34  1  0  0  0
 34 30  1  0  0  0
 30 31  2  0  0  0
 30 32  2  0  0  0
 30  1  1  0  0  0
  1  2  2  0  0  0
  2  3  1  0  0  0
  3  4  2  0  0  0
  4  5  1  0  0  0
  5  6  2  0  0  0
  5  7  1  0  0  0
  7  8  2  0  0  0
  8 13  1  0  0  0
 13 14  1  0  0  0
 14 15  1  0  0  0
 15 16  2  0  0  0
 16 17  1  0  0  0
 17 24  1  0  0  0
 24 25  1  0  0  0
 25 26  1  0  0  0
 26 27  2  0  0  0
 26 28  1  0  0  0
 16 18  1  0  0  0
 18 19  2  0  0  0
 18 20  1  0  0  0
 20 21  1  0  0  0
 21 22  1  0  0  0
  7  9  1  0  0  0
  9 10  2  0  0  0
  9 11  1  0  0  0
  6  1  1  0  0  0
 17 13  2  0  0  0
 11  4  1  0  0  0
 22 15  1  0  0  0
 34 35  1  0  0  0
 14 23  1  0  0  0
 28 29  1  0  0  0
 11 12  1  0  0  0
M  END
> <minimizedAffinity>
-7.56351

> <CNNscore>
0.4054696262

> <CNNaffinity>
6.3866243362

> <CNN_VS>
2.5895822048

> <CNNaffinity_variance>
0.4331350327

$$$$
[H]OC(=O)C([H])([H])C([H])([H])c1c2c(n([H])c1C([H])=C1C(=O)N([H])c3c([H])c([H])c(S(=O)(=O)N([H])C([H])([H])[H])c([H])c31)C([H])([H])C([H])([H])C([H])([H])C2=O


 35 38  0  0  0  0  0  0  0  0999 V2000
   -0.3909  -50.4571  -16.1663 C   0  0  0  0  0  0  0  0  0  0  0  0
   -1.2010  -51.4897  -15.7447 C   0  0  0  0  0  0  0  0  0  0  0  0
   -1.5271  -52.5276  -16.5833 C   0  0  0  0  0  0  0  0  0  0  0  0
   -1.0532  -52.5845  -17.9001 C   0  0  0  0  0  0  0  0  0  0  0  0
   -0.2441  -51.5562  -18.3266 C   0  0  0  0  0  0  0  0  0  0  0  0
    0.0662  -50.5187  -17.4484 C   0  0  0  0  0  0  0  0  0  0  0  0
    0.1691  -51.7715  -19.7289 C   0  0  0  0  0  0  0  0  0  0  0  0
    0.9590  -50.9959  -20.4261 C   0  0  0  0  0  0  0  0  0  0  0  0
   -0.4783  -53.0265  -20.0771 C   0  0  0  0  0  0  0  0  0  0  0  0
   -0.4208  -53.6289  -21.1796 O   0  0  0  0  0  0  0  0  0  0  0  0
   -1.2257  -53.5154  -18.9480 N   0  0  0  0  0  0  0  0  0  0  0  0
   -1.7906  -54.3828  -18.8905 H   0  0  0  0  0  0  0  0  0  0  0  0
    1.3770  -51.1805  -21.8017 C   0  0  0  0  0  0  0  0  0  0  0  0
    0.7268  -51.1733  -22.9635 N   0  0  0  0  0  0  0  0  0  0  0  0
    1.5591  -51.4219  -23.9930 C   0  0  0  0  0  0  0  0  0  0  0  0
    2.8286  -51.6027  -23.4871 C   0  0  0  0  0  0  0  0  0  0  0  0
    2.7114  -51.4515  -22.1232 C   0  0  0  0  0  0  0  0  0  0  0  0
    3.9038  -51.8861  -24.4209 C   0  0  0  0  0  0  0  0  0  0  0  0
    5.0635  -51.5313  -24.0975 O   0  0  0  0  0  0  0  0  0  0  0  0
    3.6735  -52.5716  -25.7234 C   0  0  0  0  0  0  0  0  0  0  0  0
    2.1647  -52.8076  -25.8783 C   0  0  0  0  0  0  0  0  0  0  0  0
    1.4083  -51.5353  -25.4761 C   0  0  0  0  0  0  0  0  0  0  0  0
   -0.2707  -50.9905  -23.1069 H   0  0  0  0  0  0  0  0  0  0  0  0
    3.8344  -51.5611  -21.1920 C   0  0  0  0  0  0  0  0  0  0  0  0
    4.2639  -50.2443  -20.5853 C   0  0  0  0  0  0  0  0  0  0  0  0
    4.2213  -50.4067  -19.1164 C   0  0  0  0  0  0  0  0  0  0  0  0
    3.6433  -51.3768  -18.5911 O   0  0  0  0  0  0  0  0  0  0  0  0
    4.8327  -49.4670  -18.3113 O   0  0  0  0  0  0  0  0  0  0  0  0
    4.5978  -48.4832  -18.3137 H   0  0  0  0  0  0  0  0  0  0  0  0
    0.0474  -49.1329  -15.1250 S   0  0  0  0  0  0  0  0  0  0  0  0
    1.5350  -48.9508  -15.2390 O   0  0  0  0  0  0  0  0  0  0  0  0
   -0.2749  -49.4327  -13.7047 O   0  0  0  0  0  0  0  0  0  0  0  0
   -2.0619  -47.5600  -15.1067 C   0  0  0  0  0  0  0  0  0  0  0  0
   -0.6921  -47.6513  -15.5769 N   0  0  0  0  0  0  0  0  0  0  0  0
   -0.5839  -47.4098  -16.5641 H   0  0  0  0  0  0  0  0  0  0  0  0
 33 34  1  0  0  0
 34 30  1  0  0  0
 30 31  2  0  0  0
 30 32  2  0  0  0
 30  1  1  0  0  0
  1  2  2  0  0  0
  2  3  1  0  0  0
  3  4  2  0  0  0
  4  5  1  0  0  0
  5  6  2  0  0  0
  5  7  1  0  0  0
  7  8  2  0  0  0
  8 13  1  0  0  0
 13 14  1  0  0  0
 14 15  1  0  0  0
 15 16  2  0  0  0
 16 17  1  0  0  0
 17 24  1  0  0  0
 24 25  1  0  0  0
 25 26  1  0  0  0
 26 27  2  0  0  0
 26 28  1  0  0  0
 16 18  1  0  0  0
 18 19  2  0  0  0
 18 20  1  0  0  0
 20 21  1  0  0  0
 21 22  1  0  0  0
  7  9  1  0  0  0
  9 10  2  0  0  0
  9 11  1  0  0  0
  6  1  1  0  0  0
 17 13  2  0  0  0
 11  4  1  0  0  0
 22 15  1  0  0  0
 34 35  1  0  0  0
 14 23  1  0  0  0
 28 29  1  0  0  0
 11 12  1  0  0  0
M  END
> <minimizedAffinity>
-7.48694

> <CNNscore>
0.4007376432

> <CNNaffinity>
6.1006407738

> <CNN_VS>
2.4447565079

> <CNNaffinity_variance>
0.1193417311

$$$$
[H]OC(=O)C([H])([H])C([H])([H])c1c2c(n([H])c1C([H])=C1C(=O)N([H])c3c([H])c([H])c(S(=O)(=O)N([H])C([H])([H])[H])c([H])c31)C([H])([H])C([H])([H])C([H])([H])C2=O


 35 38  0  0  0  0  0  0  0  0999 V2000
    0.5094  -50.8629  -18.3635 C   0  0  0  0  0  0  0  0  0  0  0  0
   -0.1907  -51.8179  -17.6579 C   0  0  0  0  0  0  0  0  0  0  0  0
   -0.7906  -52.8771  -18.2943 C   0  0  0  0  0  0  0  0  0  0  0  0
   -0.7185  -53.0351  -19.6841 C   0  0  0  0  0  0  0  0  0  0  0  0
   -0.0208  -52.0847  -20.3940 C   0  0  0  0  0  0  0  0  0  0  0  0
    0.5752  -51.0228  -19.7152 C   0  0  0  0  0  0  0  0  0  0  0  0
   -0.0385  -52.4015  -21.8372 C   0  0  0  0  0  0  0  0  0  0  0  0
    0.5515  -51.7163  -22.7827 C   0  0  0  0  0  0  0  0  0  0  0  0
   -0.8145  -53.6301  -21.8982 C   0  0  0  0  0  0  0  0  0  0  0  0
   -1.1036  -54.2938  -22.9266 O   0  0  0  0  0  0  0  0  0  0  0  0
   -1.2268  -54.0088  -20.5720 N   0  0  0  0  0  0  0  0  0  0  0  0
   -1.7897  -54.8344  -20.2956 H   0  0  0  0  0  0  0  0  0  0  0  0
    0.5475  -52.0012  -24.2039 C   0  0  0  0  0  0  0  0  0  0  0  0
   -0.3734  -51.8805  -25.1578 N   0  0  0  0  0  0  0  0  0  0  0  0
    0.0937  -52.3065  -26.3473 C   0  0  0  0  0  0  0  0  0  0  0  0
    1.3935  -52.7313  -26.1730 C   0  0  0  0  0  0  0  0  0  0  0  0
    1.6725  -52.5396  -24.8380 C   0  0  0  0  0  0  0  0  0  0  0  0
    2.1089  -53.2386  -27.3301 C   0  0  0  0  0  0  0  0  0  0  0  0
    3.3583  -53.1194  -27.3396 O   0  0  0  0  0  0  0  0  0  0  0  0
    1.4161  -53.8829  -28.4810 C   0  0  0  0  0  0  0  0  0  0  0  0
   -0.0961  -53.8131  -28.2275 C   0  0  0  0  0  0  0  0  0  0  0  0
   -0.4630  -52.4090  -27.7310 C   0  0  0  0  0  0  0  0  0  0  0  0
   -1.3197  -51.5032  -25.0525 H   0  0  0  0  0  0  0  0  0  0  0  0
    2.9598  -52.8590  -24.2208 C   0  0  0  0  0  0  0  0  0  0  0  0
    3.9541  -51.7200  -24.2422 C   0  0  0  0  0  0  0  0  0  0  0  0
    5.1231  -52.1468  -23.4439 C   0  0  0  0  0  0  0  0  0  0  0  0
    5.1023  -52.1104  -22.1992 O   0  0  0  0  0  0  0  0  0  0  0  0
    6.2588  -52.5940  -24.0884 O   0  0  0  0  0  0  0  0  0  0  0  0
    6.7837  -52.0429  -24.7545 H   0  0  0  0  0  0  0  0  0  0  0  0
    1.2878  -49.5145  -17.5852 S   0  0  0  0  0  0  0  0  0  0  0  0
    2.4949  -50.0509  -16.8680 O   0  0  0  0  0  0  0  0  0  0  0  0
    0.3943  -48.8821  -16.5789 O   0  0  0  0  0  0  0  0  0  0  0  0
    3.2561  -48.0751  -18.5739 C   0  0  0  0  0  0  0  0  0  0  0  0
    1.8313  -48.3224  -18.6942 N   0  0  0  0  0  0  0  0  0  0  0  0
    1.2696  -47.4686  -18.7044 H   0  0  0  0  0  0  0  0  0  0  0  0
 33 34  1  0  0  0
 34 30  1  0  0  0
 30 31  2  0  0  0
 30 32  2  0  0  0
 30  1  1  0  0  0
  1  2  2  0  0  0
  2  3  1  0  0  0
  3  4  2  0  0  0
  4  5  1  0  0  0
  5  6  2  0  0  0
  5  7  1  0  0  0
  7  8  2  0  0  0
  8 13  1  0  0  0
 13 14  1  0  0  0
 14 15  1  0  0  0
 15 16  2  0  0  0
 16 17  1  0  0  0
 17 24  1  0  0  0
 24 25  1  0  0  0
 25 26  1  0  0  0
 26 27  2  0  0  0
 26 28  1  0  0  0
 16 18  1  0  0  0
 18 19  2  0  0  0
 18 20  1  0  0  0
 20 21  1  0  0  0
 21 22  1  0  0  0
  7  9  1  0  0  0
  9 10  2  0  0  0
  9 11  1  0  0  0
  6  1  1  0  0  0
 17 13  2  0  0  0
 11  4  1  0  0  0
 22 15  1  0  0  0
 34 35  1  0  0  0
 14 23  1  0  0  0
 28 29  1  0  0  0
 11 12  1  0  0  0
M  END
> <minimizedAffinity>
-9.22677

> <CNNscore>
0.3673207164

> <CNNaffinity>
6.4476838112

> <CNN_VS>
2.3683679104

> <CNNaffinity_variance>
0.0875646621

$$$$
[H]OC(=O)C([H])([H])C([H])([H])c1c2c(n([H])c1C([H])=C1C(=O)N([H])c3c([H])c([H])c(S(=O)(=O)N([H])C([H])([H])[H])c([H])c31)C([H])([H])C([H])([H])C([H])([H])C2=O


 35 38  0  0  0  0  0  0  0  0999 V2000
    0.8606  -53.6309  -26.1931 C   0  0  0  0  0  0  0  0  0  0  0  0
    0.0608  -54.7395  -26.3702 C   0  0  0  0  0  0  0  0  0  0  0  0
   -0.6243  -55.2992  -25.3194 C   0  0  0  0  0  0  0  0  0  0  0  0
   -0.5422  -54.7713  -24.0247 C   0  0  0  0  0  0  0  0  0  0  0  0
    0.2550  -53.6645  -23.8418 C   0  0  0  0  0  0  0  0  0  0  0  0
    0.9360  -53.1228  -24.9310 C   0  0  0  0  0  0  0  0  0  0  0  0
    0.2268  -53.2354  -22.4280 C   0  0  0  0  0  0  0  0  0  0  0  0
    0.8529  -52.2029  -21.9246 C   0  0  0  0  0  0  0  0  0  0  0  0
   -0.6656  -54.2006  -21.8056 C   0  0  0  0  0  0  0  0  0  0  0  0
   -1.0079  -54.2467  -20.5963 O   0  0  0  0  0  0  0  0  0  0  0  0
   -1.1305  -55.1380  -22.7942 N   0  0  0  0  0  0  0  0  0  0  0  0
   -1.7748  -55.9381  -22.6543 H   0  0  0  0  0  0  0  0  0  0  0  0
    0.8461  -51.7620  -20.5438 C   0  0  0  0  0  0  0  0  0  0  0  0
   -0.1252  -51.4440  -19.6905 N   0  0  0  0  0  0  0  0  0  0  0  0
    0.3742  -51.0605  -18.4997 C   0  0  0  0  0  0  0  0  0  0  0  0
    1.7494  -51.1286  -18.5667 C   0  0  0  0  0  0  0  0  0  0  0  0
    2.0394  -51.5658  -19.8401 C   0  0  0  0  0  0  0  0  0  0  0  0
    2.5115  -50.7578  -17.3878 C   0  0  0  0  0  0  0  0  0  0  0  0
    3.6355  -51.2934  -17.2297 O   0  0  0  0  0  0  0  0  0  0  0  0
    2.0072  -49.7803  -16.3828 C   0  0  0  0  0  0  0  0  0  0  0  0
    0.5892  -49.3612  -16.7946 C   0  0  0  0  0  0  0  0  0  0  0  0
   -0.2099  -50.6059  -17.2007 C   0  0  0  0  0  0  0  0  0  0  0  0
   -1.1333  -51.4863  -19.8655 H   0  0  0  0  0  0  0  0  0  0  0  0
    3.3981  -51.7822  -20.3375 C   0  0  0  0  0  0  0  0  0  0  0  0
    4.0032  -50.5782  -21.0236 C   0  0  0  0  0  0  0  0  0  0  0  0
    4.5600  -51.0447  -22.3114 C   0  0  0  0  0  0  0  0  0  0  0  0
    3.9124  -50.9400  -23.3700 O   0  0  0  0  0  0  0  0  0  0  0  0
    5.8203  -51.6067  -22.3425 O   0  0  0  0  0  0  0  0  0  0  0  0
    6.0864  -52.4255  -21.8119 H   0  0  0  0  0  0  0  0  0  0  0  0
    1.7339  -52.8935  -27.5059 S   0  0  0  0  0  0  0  0  0  0  0  0
    3.0693  -53.5780  -27.5921 O   0  0  0  0  0  0  0  0  0  0  0  0
    1.9703  -51.4475  -27.2528 O   0  0  0  0  0  0  0  0  0  0  0  0
   -0.4065  -52.5816  -29.0042 C   0  0  0  0  0  0  0  0  0  0  0  0
    0.9537  -53.0867  -29.0225 N   0  0  0  0  0  0  0  0  0  0  0  0
    1.0343  -54.0242  -29.4218 H   0  0  0  0  0  0  0  0  0  0  0  0
 33 34  1  0  0  0
 34 30  1  0  0  0
 30 31  2  0  0  0
 30 32  2  0  0  0
 30  1  1  0  0  0
  1  2  2  0  0  0
  2  3  1  0  0  0
  3  4  2  0  0  0
  4  5  1  0  0  0
  5  6  2  0  0  0
  5  7  1  0  0  0
  7  8  2  0  0  0
  8 13  1  0  0  0
 13 14  1  0  0  0
 14 15  1  0  0  0
 15 16  2  0  0  0
 16 17  1  0  0  0
 17 24  1  0  0  0
 24 25  1  0  0  0
 25 26  1  0  0  0
 26 27  2  0  0  0
 26 28  1  0  0  0
 16 18  1  0  0  0
 18 19  2  0  0  0
 18 20  1  0  0  0
 20 21  1  0  0  0
 21 22  1  0  0  0
  7  9  1  0  0  0
  9 10  2  0  0  0
  9 11  1  0  0  0
  6  1  1  0  0  0
 17 13  2  0  0  0
 11  4  1  0  0  0
 22 15  1  0  0  0
 34 35  1  0  0  0
 14 23  1  0  0  0
 28 29  1  0  0  0
 11 12  1  0  0  0
M  END
> <minimizedAffinity>
-8.93678

> <CNNscore>
0.3598842025

> <CNNaffinity>
6.4762353897

> <CNN_VS>
2.3306949139

> <CNNaffinity_variance>
0.1526124477

$$$$
[H]c1nc(OC([H])([H])[H])c(N([H])S(=O)(=O)c2c([H])c([H])c(F)c([H])c2F)c([H])c1-c1nc([H])c2nc(N([H])[H])c(-c3c([H])c([H])c([H])c([H])c3[H])c([H])c2c1[H]


 40 44  0  0  0  0  0  0  0  0999 V2000
    1.5928  -48.7764  -17.0849 C   0  0  0  0  0  0  0  0  0  0  0  0
    0.8530  -49.7939  -16.6215 N   0  0  0  0  0  0  0  0  0  0  0  0
    0.3799  -50.7980  -17.4243 C   0  0  0  0  0  0  0  0  0  0  0  0
    0.6481  -50.8075  -18.7700 C   0  0  0  0  0  0  0  0  0  0  0  0
    1.4117  -49.7595  -19.2563 C   0  0  0  0  0  0  0  0  0  0  0  0
    1.8870  -48.7445  -18.4284 C   0  0  0  0  0  0  0  0  0  0  0  0
    0.1702  -51.8536  -19.6808 C   0  0  0  0  0  0  0  0  0  0  0  0
    0.2840  -51.7368  -21.0252 C   0  0  0  0  0  0  0  0  0  0  0  0
   -0.1758  -52.7422  -21.8862 C   0  0  0  0  0  0  0  0  0  0  0  0
   -0.0489  -52.6007  -23.2524 C   0  0  0  0  0  0  0  0  0  0  0  0
   -0.5244  -53.6337  -24.0647 C   0  0  0  0  0  0  0  0  0  0  0  0
   -1.1011  -54.7548  -23.4864 C   0  0  0  0  0  0  0  0  0  0  0  0
   -1.5590  -55.7762  -24.3585 N   0  0  0  0  0  0  0  0  0  0  0  0
   -1.2125  -54.8662  -22.1401 N   0  0  0  0  0  0  0  0  0  0  0  0
   -0.7567  -53.8749  -21.3558 C   0  0  0  0  0  0  0  0  0  0  0  0
   -0.8587  -53.9642  -19.9694 C   0  0  0  0  0  0  0  0  0  0  0  0
   -0.4070  -52.9816  -19.1836 N   0  0  0  0  0  0  0  0  0  0  0  0
   -0.9412  -56.0583  -25.1436 H   0  0  0  0  0  0  0  0  0  0  0  0
   -2.4701  -56.2291  -24.2276 H   0  0  0  0  0  0  0  0  0  0  0  0
   -0.3953  -53.4731  -25.4831 C   0  0  0  0  0  0  0  0  0  0  0  0
   -1.2476  -52.6519  -26.1826 C   0  0  0  0  0  0  0  0  0  0  0  0
   -1.1554  -52.4838  -27.5373 C   0  0  0  0  0  0  0  0  0  0  0  0
   -0.1834  -53.1510  -28.2404 C   0  0  0  0  0  0  0  0  0  0  0  0
    0.6905  -53.9837  -27.5768 C   0  0  0  0  0  0  0  0  0  0  0  0
    0.5718  -54.1341  -26.2006 C   0  0  0  0  0  0  0  0  0  0  0  0
    3.1066  -47.9703  -15.3242 C   0  0  0  0  0  0  0  0  0  0  0  0
    2.0485  -47.7758  -16.2072 O   0  0  0  0  0  0  0  0  0  0  0  0
    2.6632  -47.6695  -18.9253 N   0  0  0  0  0  0  0  0  0  0  0  0
    2.3721  -46.6942  -18.6290 H   0  0  0  0  0  0  0  0  0  0  0  0
    4.0282  -47.8688  -19.9690 S   0  0  0  0  0  0  0  0  0  0  0  0
    4.3729  -46.5395  -20.6027 O   0  0  0  0  0  0  0  0  0  0  0  0
    5.2163  -48.2525  -19.1374 O   0  0  0  0  0  0  0  0  0  0  0  0
    3.7767  -49.0693  -21.1875 C   0  0  0  0  0  0  0  0  0  0  0  0
    4.5005  -50.2382  -21.1989 C   0  0  0  0  0  0  0  0  0  0  0  0
    4.2631  -51.1729  -22.1877 C   0  0  0  0  0  0  0  0  0  0  0  0
    3.3149  -50.9502  -23.1581 C   0  0  0  0  0  0  0  0  0  0  0  0
    3.0660  -51.8650  -24.1456 F   0  0  0  0  0  0  0  0  0  0  0  0
    2.5731  -49.7767  -23.1647 C   0  0  0  0  0  0  0  0  0  0  0  0
    2.8339  -48.8636  -22.1642 C   0  0  0  0  0  0  0  0  0  0  0  0
    2.1301  -47.7072  -22.1381 F   0  0  0  0  0  0  0  0  0  0  0  0
 26 27  1  0  0  0
 27  1  1  0  0  0
  1  2  2  0  0  0
  2  3  1  0  0  0
  3  4  2  0  0  0
  4  7  1  0  0  0
  7  8  2  0  0  0
  8  9  1  0  0  0
  9 10  2  0  0  0
 10 11  1  0  0  0
 11 20  1  0  0  0
 20 21  2  0  0  0
 21 22  1  0  0  0
 22 23  2  0  0  0
 23 24  1  0  0  0
 24 25  2  0  0  0
 11 12  2  0  0  0
 12 13  1  0  0  0
 12 14  1  0  0  0
 14 15  2  0  0  0
 15 16  1  0  0  0
 16 17  2  0  0  0
  4  5  1  0  0  0
  5  6  2  0  0  0
  6 28  1  0  0  0
 28 30  1  0  0  0
 30 31  2  0  0  0
 30 32  2  0  0  0
 30 33  1  0  0  0
 33 34  2  0  0  0
 34 35  1  0  0  0
 35 36  2  0  0  0
 36 37  1  0  0  0
 36 38  1  0  0  0
 38 39  2  0  0  0
 39 40  1  0  0  0
  6  1  1  0  0  0
 39 33  1  0  0  0
 17  7  1  0  0  0
 15  9  1  0  0  0
 25 20  1  0  0  0
 13 18  1  0  0  0
 13 19  1  0  0  0
 28 29  1  0  0  0
M  END
> <minimizedAffinity>
-9.51655

> <CNNscore>
0.7198680043

> <CNNaffinity>
7.7791624069

> <CNN_VS>
5.5999703407

> <CNNaffinity_variance>
0.1749426275

$$$$
[H]c1nc(OC([H])([H])[H])c(N([H])S(=O)(=O)c2c([H])c([H])c(F)c([H])c2F)c([H])c1-c1nc([H])c2nc(N([H])[H])c(-c3c([H])c([H])c([H])c([H])c3[H])c([H])c2c1[H]


 40 44  0  0  0  0  0  0  0  0999 V2000
    0.0407  -53.7430  -26.2993 C   0  0  0  0  0  0  0  0  0  0  0  0
   -0.5853  -54.7043  -25.6056 N   0  0  0  0  0  0  0  0  0  0  0  0
   -0.8222  -54.6183  -24.2591 C   0  0  0  0  0  0  0  0  0  0  0  0
   -0.4199  -53.5188  -23.5435 C   0  0  0  0  0  0  0  0  0  0  0  0
    0.2276  -52.5213  -24.2532 C   0  0  0  0  0  0  0  0  0  0  0  0
    0.4620  -52.6216  -25.6230 C   0  0  0  0  0  0  0  0  0  0  0  0
   -0.6442  -53.3681  -22.1015 C   0  0  0  0  0  0  0  0  0  0  0  0
    0.0738  -52.4963  -21.3542 C   0  0  0  0  0  0  0  0  0  0  0  0
   -0.1487  -52.3603  -19.9774 C   0  0  0  0  0  0  0  0  0  0  0  0
    0.5954  -51.4655  -19.2369 C   0  0  0  0  0  0  0  0  0  0  0  0
    0.3322  -51.3701  -17.8678 C   0  0  0  0  0  0  0  0  0  0  0  0
   -0.6531  -52.1635  -17.2989 C   0  0  0  0  0  0  0  0  0  0  0  0
   -0.8835  -52.0193  -15.9062 N   0  0  0  0  0  0  0  0  0  0  0  0
   -1.3686  -53.0346  -18.0518 N   0  0  0  0  0  0  0  0  0  0  0  0
   -1.1182  -53.1292  -19.3687 C   0  0  0  0  0  0  0  0  0  0  0  0
   -1.8389  -54.0160  -20.1651 C   0  0  0  0  0  0  0  0  0  0  0  0
   -1.5949  -54.1148  -21.4757 N   0  0  0  0  0  0  0  0  0  0  0  0
   -0.9327  -51.0576  -15.5185 H   0  0  0  0  0  0  0  0  0  0  0  0
   -0.9994  -52.8324  -15.2914 H   0  0  0  0  0  0  0  0  0  0  0  0
    1.1165  -50.4434  -17.1060 C   0  0  0  0  0  0  0  0  0  0  0  0
    2.3933  -50.7590  -16.7054 C   0  0  0  0  0  0  0  0  0  0  0  0
    3.1640  -49.8997  -15.9710 C   0  0  0  0  0  0  0  0  0  0  0  0
    2.6614  -48.6740  -15.6115 C   0  0  0  0  0  0  0  0  0  0  0  0
    1.3862  -48.3194  -15.9929 C   0  0  0  0  0  0  0  0  0  0  0  0
    0.6276  -49.2135  -16.7383 C   0  0  0  0  0  0  0  0  0  0  0  0
   -0.5042  -53.2240  -28.6392 C   0  0  0  0  0  0  0  0  0  0  0  0
    0.2533  -53.8925  -27.6820 O   0  0  0  0  0  0  0  0  0  0  0  0
    1.1289  -51.6049  -26.3488 N   0  0  0  0  0  0  0  0  0  0  0  0
    0.5192  -50.8753  -26.8175 H   0  0  0  0  0  0  0  0  0  0  0  0
    2.8487  -51.5023  -26.5043 S   0  0  0  0  0  0  0  0  0  0  0  0
    3.3462  -52.6599  -27.3408 O   0  0  0  0  0  0  0  0  0  0  0  0
    3.1880  -50.2592  -27.2724 O   0  0  0  0  0  0  0  0  0  0  0  0
    3.6635  -51.4676  -24.9797 C   0  0  0  0  0  0  0  0  0  0  0  0
    4.5678  -52.4427  -24.6307 C   0  0  0  0  0  0  0  0  0  0  0  0
    5.2005  -52.3730  -23.4049 C   0  0  0  0  0  0  0  0  0  0  0  0
    4.9383  -51.3440  -22.5315 C   0  0  0  0  0  0  0  0  0  0  0  0
    5.5556  -51.2585  -21.3127 F   0  0  0  0  0  0  0  0  0  0  0  0
    4.0288  -50.3493  -22.8645 C   0  0  0  0  0  0  0  0  0  0  0  0
    3.4139  -50.4474  -24.0954 C   0  0  0  0  0  0  0  0  0  0  0  0
    2.5206  -49.4957  -24.4550 F   0  0  0  0  0  0  0  0  0  0  0  0
 26 27  1  0  0  0
 27  1  1  0  0  0
  1  2  2  0  0  0
  2  3  1  0  0  0
  3  4  2  0  0  0
  4  7  1  0  0  0
  7  8  2  0  0  0
  8  9  1  0  0  0
  9 10  2  0  0  0
 10 11  1  0  0  0
 11 20  1  0  0  0
 20 21  2  0  0  0
 21 22  1  0  0  0
 22 23  2  0  0  0
 23 24  1  0  0  0
 24 25  2  0  0  0
 11 12  2  0  0  0
 12 13  1  0  0  0
 12 14  1  0  0  0
 14 15  2  0  0  0
 15 16  1  0  0  0
 16 17  2  0  0  0
  4  5  1  0  0  0
  5  6  2  0  0  0
  6 28  1  0  0  0
 28 30  1  0  0  0
 30 31  2  0  0  0
 30 32  2  0  0  0
 30 33  1  0  0  0
 33 34  2  0  0  0
 34 35  1  0  0  0
 35 36  2  0  0  0
 36 37  1  0  0  0
 36 38  1  0  0  0
 38 39  2  0  0  0
 39 40  1  0  0  0
  6  1  1  0  0  0
 39 33  1  0  0  0
 17  7  1  0  0  0
 15  9  1  0  0  0
 25 20  1  0  0  0
 13 18  1  0  0  0
 13 19  1  0  0  0
 28 29  1  0  0  0
M  END
> <minimizedAffinity>
-9.43584

> <CNNscore>
0.5080787539

> <CNNaffinity>
7.6336593628

> <CNN_VS>
3.8785002232

> <CNNaffinity_variance>
0.1715215147

$$$$
[H]c1nc(OC([H])([H])[H])c(N([H])S(=O)(=O)c2c([H])c([H])c(F)c([H])c2F)c([H])c1-c1nc([H])c2nc(N([H])[H])c(-c3c([H])c([H])c([H])c([H])c3[H])c([H])c2c1[H]


 40 44  0  0  0  0  0  0  0  0999 V2000
    0.7237  -52.4875  -26.6660 C   0  0  0  0  0  0  0  0  0  0  0  0
   -0.4058  -53.0828  -26.2573 N   0  0  0  0  0  0  0  0  0  0  0  0
   -0.7493  -53.2037  -24.9367 C   0  0  0  0  0  0  0  0  0  0  0  0
    0.0664  -52.7096  -23.9502 C   0  0  0  0  0  0  0  0  0  0  0  0
    1.2354  -52.0933  -24.3645 C   0  0  0  0  0  0  0  0  0  0  0  0
    1.5726  -51.9769  -25.7115 C   0  0  0  0  0  0  0  0  0  0  0  0
   -0.2458  -52.8082  -22.5201 C   0  0  0  0  0  0  0  0  0  0  0  0
    0.2893  -51.9580  -21.6119 C   0  0  0  0  0  0  0  0  0  0  0  0
   -0.0159  -52.0610  -20.2482 C   0  0  0  0  0  0  0  0  0  0  0  0
    0.5416  -51.1834  -19.3417 C   0  0  0  0  0  0  0  0  0  0  0  0
    0.2031  -51.3311  -17.9939 C   0  0  0  0  0  0  0  0  0  0  0  0
   -0.6695  -52.3385  -17.6093 C   0  0  0  0  0  0  0  0  0  0  0  0
   -0.9846  -52.4370  -16.2293 N   0  0  0  0  0  0  0  0  0  0  0  0
   -1.2020  -53.1867  -18.5229 N   0  0  0  0  0  0  0  0  0  0  0  0
   -0.8787  -53.0478  -19.8197 C   0  0  0  0  0  0  0  0  0  0  0  0
   -1.4118  -53.9059  -20.7788 C   0  0  0  0  0  0  0  0  0  0  0  0
   -1.0944  -53.7729  -22.0705 N   0  0  0  0  0  0  0  0  0  0  0  0
   -1.2036  -51.5612  -15.7168 H   0  0  0  0  0  0  0  0  0  0  0  0
   -0.9987  -53.3397  -15.7422 H   0  0  0  0  0  0  0  0  0  0  0  0
    0.7942  -50.4195  -17.0592 C   0  0  0  0  0  0  0  0  0  0  0  0
    2.0748  -50.6113  -16.5971 C   0  0  0  0  0  0  0  0  0  0  0  0
    2.6640  -49.7640  -15.6990 C   0  0  0  0  0  0  0  0  0  0  0  0
    1.9671  -48.6778  -15.2311 C   0  0  0  0  0  0  0  0  0  0  0  0
    0.6812  -48.4502  -15.6692 C   0  0  0  0  0  0  0  0  0  0  0  0
    0.1097  -49.3285  -16.5815 C   0  0  0  0  0  0  0  0  0  0  0  0
    0.1373  -52.8172  -29.0301 C   0  0  0  0  0  0  0  0  0  0  0  0
    1.0185  -52.3958  -28.0386 O   0  0  0  0  0  0  0  0  0  0  0  0
    2.7702  -51.3519  -26.1362 N   0  0  0  0  0  0  0  0  0  0  0  0
    3.2269  -51.7406  -27.0103 H   0  0  0  0  0  0  0  0  0  0  0  0
    3.5050  -50.0191  -25.3142 S   0  0  0  0  0  0  0  0  0  0  0  0
    4.8544  -49.7307  -25.9334 O   0  0  0  0  0  0  0  0  0  0  0  0
    2.6716  -48.7935  -25.5461 O   0  0  0  0  0  0  0  0  0  0  0  0
    3.6673  -50.2816  -23.6130 C   0  0  0  0  0  0  0  0  0  0  0  0
    3.0629  -49.4491  -22.7009 C   0  0  0  0  0  0  0  0  0  0  0  0
    3.2138  -49.6989  -21.3509 C   0  0  0  0  0  0  0  0  0  0  0  0
    3.9586  -50.7667  -20.9086 C   0  0  0  0  0  0  0  0  0  0  0  0
    4.1192  -51.0298  -19.5748 F   0  0  0  0  0  0  0  0  0  0  0  0
    4.5771  -51.6194  -21.8128 C   0  0  0  0  0  0  0  0  0  0  0  0
    4.4072  -51.3429  -23.1535 C   0  0  0  0  0  0  0  0  0  0  0  0
    4.9956  -52.1527  -24.0653 F   0  0  0  0  0  0  0  0  0  0  0  0
 26 27  1  0  0  0
 27  1  1  0  0  0
  1  2  2  0  0  0
  2  3  1  0  0  0
  3  4  2  0  0  0
  4  7  1  0  0  0
  7  8  2  0  0  0
  8  9  1  0  0  0
  9 10  2  0  0  0
 10 11  1  0  0  0
 11 20  1  0  0  0
 20 21  2  0  0  0
 21 22  1  0  0  0
 22 23  2  0  0  0
 23 24  1  0  0  0
 24 25  2  0  0  0
 11 12  2  0  0  0
 12 13  1  0  0  0
 12 14  1  0  0  0
 14 15  2  0  0  0
 15 16  1  0  0  0
 16 17  2  0  0  0
  4  5  1  0  0  0
  5  6  2  0  0  0
  6 28  1  0  0  0
 28 30  1  0  0  0
 30 31  2  0  0  0
 30 32  2  0  0  0
 30 33  1  0  0  0
 33 34  2  0  0  0
 34 35  1  0  0  0
 35 36  2  0  0  0
 36 37  1  0  0  0
 36 38  1  0  0  0
 38 39  2  0  0  0
 39 40  1  0  0  0
  6  1  1  0  0  0
 39 33  1  0  0  0
 17  7  1  0  0  0
 15  9  1  0  0  0
 25 20  1  0  0  0
 13 18  1  0  0  0
 13 19  1  0  0  0
 28 29  1  0  0  0
M  END
> <minimizedAffinity>
-8.75599

> <CNNscore>
0.3364567757

> <CNNaffinity>
7.4205756187

> <CNN_VS>
2.4967029095

> <CNNaffinity_variance>
0.2395047694

$$$$
[H]c1nc(OC([H])([H])[H])c(N([H])S(=O)(=O)c2c([H])c([H])c(F)c([H])c2F)c([H])c1-c1nc([H])c2nc(N([H])[H])c(-c3c([H])c([H])c([H])c([H])c3[H])c([H])c2c1[H]


 40 44  0  0  0  0  0  0  0  0999 V2000
   -0.0895  -53.9725  -24.0640 C   0  0  0  0  0  0  0  0  0  0  0  0
   -0.8880  -54.0915  -22.9937 N   0  0  0  0  0  0  0  0  0  0  0  0
   -0.6950  -53.3835  -21.8369 C   0  0  0  0  0  0  0  0  0  0  0  0
    0.3487  -52.5004  -21.7191 C   0  0  0  0  0  0  0  0  0  0  0  0
    1.1782  -52.3721  -22.8207 C   0  0  0  0  0  0  0  0  0  0  0  0
    0.9702  -53.0983  -23.9915 C   0  0  0  0  0  0  0  0  0  0  0  0
    0.6078  -51.7142  -20.5079 C   0  0  0  0  0  0  0  0  0  0  0  0
    1.5010  -50.6964  -20.4945 C   0  0  0  0  0  0  0  0  0  0  0  0
    1.7407  -49.9516  -19.3321 C   0  0  0  0  0  0  0  0  0  0  0  0
    2.6555  -48.9193  -19.3428 C   0  0  0  0  0  0  0  0  0  0  0  0
    2.8558  -48.2094  -18.1558 C   0  0  0  0  0  0  0  0  0  0  0  0
    2.1420  -48.5550  -17.0178 C   0  0  0  0  0  0  0  0  0  0  0  0
    2.3793  -47.7952  -15.8431 N   0  0  0  0  0  0  0  0  0  0  0  0
    1.2493  -49.5749  -17.0370 N   0  0  0  0  0  0  0  0  0  0  0  0
    1.0542  -50.2599  -18.1765 C   0  0  0  0  0  0  0  0  0  0  0  0
    0.1427  -51.3122  -18.2235 C   0  0  0  0  0  0  0  0  0  0  0  0
   -0.0562  -51.9974  -19.3539 N   0  0  0  0  0  0  0  0  0  0  0  0
    2.4269  -46.7621  -15.9336 H   0  0  0  0  0  0  0  0  0  0  0  0
    2.5015  -48.2413  -14.9274 H   0  0  0  0  0  0  0  0  0  0  0  0
    3.8144  -47.1441  -18.1754 C   0  0  0  0  0  0  0  0  0  0  0  0
    3.4547  -45.8756  -18.5649 C   0  0  0  0  0  0  0  0  0  0  0  0
    4.3478  -44.8399  -18.6020 C   0  0  0  0  0  0  0  0  0  0  0  0
    5.6544  -45.0558  -18.2411 C   0  0  0  0  0  0  0  0  0  0  0  0
    6.0555  -46.3126  -17.8449 C   0  0  0  0  0  0  0  0  0  0  0  0
    5.1254  -47.3444  -17.8176 C   0  0  0  0  0  0  0  0  0  0  0  0
   -0.4887  -56.1128  -25.2046 C   0  0  0  0  0  0  0  0  0  0  0  0
   -0.3423  -54.7289  -25.2230 O   0  0  0  0  0  0  0  0  0  0  0  0
    1.8209  -52.9721  -25.1165 N   0  0  0  0  0  0  0  0  0  0  0  0
    2.6689  -53.6075  -25.1469 H   0  0  0  0  0  0  0  0  0  0  0  0
    1.5487  -51.8557  -26.4095 S   0  0  0  0  0  0  0  0  0  0  0  0
    1.3897  -50.4623  -25.8434 O   0  0  0  0  0  0  0  0  0  0  0  0
    2.7737  -51.8150  -27.2744 O   0  0  0  0  0  0  0  0  0  0  0  0
    0.1806  -52.2698  -27.3822 C   0  0  0  0  0  0  0  0  0  0  0  0
    0.3336  -52.8022  -28.6406 C   0  0  0  0  0  0  0  0  0  0  0  0
   -0.7868  -53.1242  -29.3813 C   0  0  0  0  0  0  0  0  0  0  0  0
   -2.0498  -52.9198  -28.8779 C   0  0  0  0  0  0  0  0  0  0  0  0
   -3.1715  -53.2328  -29.5974 F   0  0  0  0  0  0  0  0  0  0  0  0
   -2.2264  -52.3835  -27.6096 C   0  0  0  0  0  0  0  0  0  0  0  0
   -1.0880  -52.0726  -26.8954 C   0  0  0  0  0  0  0  0  0  0  0  0
   -1.2206  -51.5476  -25.6545 F   0  0  0  0  0  0  0  0  0  0  0  0
 26 27  1  0  0  0
 27  1  1  0  0  0
  1  2  2  0  0  0
  2  3  1  0  0  0
  3  4  2  0  0  0
  4  7  1  0  0  0
  7  8  2  0  0  0
  8  9  1  0  0  0
  9 10  2  0  0  0
 10 11  1  0  0  0
 11 20  1  0  0  0
 20 21  2  0  0  0
 21 22  1  0  0  0
 22 23  2  0  0  0
 23 24  1  0  0  0
 24 25  2  0  0  0
 11 12  2  0  0  0
 12 13  1  0  0  0
 12 14  1  0  0  0
 14 15  2  0  0  0
 15 16  1  0  0  0
 16 17  2  0  0  0
  4  5  1  0  0  0
  5  6  2  0  0  0
  6 28  1  0  0  0
 28 30  1  0  0  0
 30 31  2  0  0  0
 30 32  2  0  0  0
 30 33  1  0  0  0
 33 34  2  0  0  0
 34 35  1  0  0  0
 35 36  2  0  0  0
 36 37  1  0  0  0
 36 38  1  0  0  0
 38 39  2  0  0  0
 39 40  1  0  0  0
  6  1  1  0  0  0
 39 33  1  0  0  0
 17  7  1  0  0  0
 15  9  1  0  0  0
 25 20  1  0  0  0
 13 18  1  0  0  0
 13 19  1  0  0  0
 28 29  1  0  0  0
M  END
> <minimizedAffinity>
-7.79633

> <CNNscore>
0.3197704256

> <CNNaffinity>
7.3001260757

> <CNN_VS>
2.3343644142

> <CNNaffinity_variance>
0.2890482843

$$$$
[H]c1nc(OC([H])([H])[H])c(N([H])S(=O)(=O)c2c([H])c([H])c(F)c([H])c2F)c([H])c1-c1nc([H])c2nc(N([H])[H])c(-c3c([H])c([H])c([H])c([H])c3[H])c([H])c2c1[H]


 40 44  0  0  0  0  0  0  0  0999 V2000
   -0.8072  -54.2676  -22.8823 C   0  0  0  0  0  0  0  0  0  0  0  0
   -1.7117  -54.6648  -21.9759 N   0  0  0  0  0  0  0  0  0  0  0  0
   -1.7475  -54.1788  -20.6957 C   0  0  0  0  0  0  0  0  0  0  0  0
   -0.8380  -53.2420  -20.2737 C   0  0  0  0  0  0  0  0  0  0  0  0
    0.0998  -52.8268  -21.2043 C   0  0  0  0  0  0  0  0  0  0  0  0
    0.1249  -53.3293  -22.5037 C   0  0  0  0  0  0  0  0  0  0  0  0
   -0.8246  -52.6839  -18.9170 C   0  0  0  0  0  0  0  0  0  0  0  0
    0.1185  -51.7976  -18.5185 C   0  0  0  0  0  0  0  0  0  0  0  0
    0.1219  -51.2706  -17.2201 C   0  0  0  0  0  0  0  0  0  0  0  0
    1.0931  -50.3690  -16.8371 C   0  0  0  0  0  0  0  0  0  0  0  0
    1.0493  -49.8749  -15.5306 C   0  0  0  0  0  0  0  0  0  0  0  0
    0.0481  -50.2963  -14.6681 C   0  0  0  0  0  0  0  0  0  0  0  0
    0.0473  -49.7560  -13.3560 N   0  0  0  0  0  0  0  0  0  0  0  0
   -0.8933  -51.1839  -15.0724 N   0  0  0  0  0  0  0  0  0  0  0  0
   -0.8544  -51.6613  -16.3279 C   0  0  0  0  0  0  0  0  0  0  0  0
   -1.8096  -52.5742  -16.7689 C   0  0  0  0  0  0  0  0  0  0  0  0
   -1.7766  -53.0527  -18.0167 N   0  0  0  0  0  0  0  0  0  0  0  0
    0.2018  -48.7349  -13.2506 H   0  0  0  0  0  0  0  0  0  0  0  0
   -0.1003  -50.3457  -12.5297 H   0  0  0  0  0  0  0  0  0  0  0  0
    2.0678  -48.9452  -15.1402 C   0  0  0  0  0  0  0  0  0  0  0  0
    3.2353  -49.3780  -14.5574 C   0  0  0  0  0  0  0  0  0  0  0  0
    4.2226  -48.5154  -14.1665 C   0  0  0  0  0  0  0  0  0  0  0  0
    4.0595  -47.1655  -14.3547 C   0  0  0  0  0  0  0  0  0  0  0  0
    2.9039  -46.6908  -14.9350 C   0  0  0  0  0  0  0  0  0  0  0  0
    1.9192  -47.5916  -15.3215 C   0  0  0  0  0  0  0  0  0  0  0  0
   -0.8971  -56.1733  -24.4321 C   0  0  0  0  0  0  0  0  0  0  0  0
   -0.8243  -54.8061  -24.1819 O   0  0  0  0  0  0  0  0  0  0  0  0
    1.0866  -52.9096  -23.4545 N   0  0  0  0  0  0  0  0  0  0  0  0
    2.0889  -53.2095  -23.2833 H   0  0  0  0  0  0  0  0  0  0  0  0
    0.7118  -51.9525  -24.8458 S   0  0  0  0  0  0  0  0  0  0  0  0
   -0.7707  -51.6538  -24.8640 O   0  0  0  0  0  0  0  0  0  0  0  0
    1.4008  -50.6263  -24.7159 O   0  0  0  0  0  0  0  0  0  0  0  0
    1.1935  -52.6995  -26.3288 C   0  0  0  0  0  0  0  0  0  0  0  0
    0.2774  -53.3134  -27.1500 C   0  0  0  0  0  0  0  0  0  0  0  0
    0.7048  -53.8928  -28.3287 C   0  0  0  0  0  0  0  0  0  0  0  0
    2.0309  -53.8635  -28.6906 C   0  0  0  0  0  0  0  0  0  0  0  0
    2.4727  -54.4322  -29.8548 F   0  0  0  0  0  0  0  0  0  0  0  0
    2.9720  -53.2488  -27.8759 C   0  0  0  0  0  0  0  0  0  0  0  0
    2.5135  -52.6797  -26.7059 C   0  0  0  0  0  0  0  0  0  0  0  0
    3.4023  -52.0711  -25.8856 F   0  0  0  0  0  0  0  0  0  0  0  0
 26 27  1  0  0  0
 27  1  1  0  0  0
  1  2  2  0  0  0
  2  3  1  0  0  0
  3  4  2  0  0  0
  4  7  1  0  0  0
  7  8  2  0  0  0
  8  9  1  0  0  0
  9 10  2  0  0  0
 10 11  1  0  0  0
 11 20  1  0  0  0
 20 21  2  0  0  0
 21 22  1  0  0  0
 22 23  2  0  0  0
 23 24  1  0  0  0
 24 25  2  0  0  0
 11 12  2  0  0  0
 12 13  1  0  0  0
 12 14  1  0  0  0
 14 15  2  0  0  0
 15 16  1  0  0  0
 16 17  2  0  0  0
  4  5  1  0  0  0
  5  6  2  0  0  0
  6 28  1  0  0  0
 28 30  1  0  0  0
 30 31  2  0  0  0
 30 32  2  0  0  0
 30 33  1  0  0  0
 33 34  2  0  0  0
 34 35  1  0  0  0
 35 36  2  0  0  0
 36 37  1  0  0  0
 36 38  1  0  0  0
 38 39  2  0  0  0
 39 40  1  0  0  0
  6  1  1  0  0  0
 39 33  1  0  0  0
 17  7  1  0  0  0
 15  9  1  0  0  0
 25 20  1  0  0  0
 13 18  1  0  0  0
 13 19  1  0  0  0
 28 29  1  0  0  0
M  END
> <minimizedAffinity>
-7.45882

> <CNNscore>
0.2967468500

> <CNNaffinity>
6.8917341232

> <CNN_VS>
2.0451004505

> <CNNaffinity_variance>
0.0755193383

$$$$
[H]c1nc(OC([H])([H])[H])c(N([H])S(=O)(=O)c2c([H])c([H])c(F)c([H])c2F)c([H])c1-c1nc([H])c2nc(N([H])[H])c(-c3c([H])c([H])c([H])c([H])c3[H])c([H])c2c1[H]


 40 44  0  0  0  0  0  0  0  0999 V2000
    0.0302  -50.6017  -16.0807 C   0  0  0  0  0  0  0  0  0  0  0  0
   -0.6166  -51.7753  -16.1211 N   0  0  0  0  0  0  0  0  0  0  0  0
   -0.8190  -52.4757  -17.2809 C   0  0  0  0  0  0  0  0  0  0  0  0
   -0.3581  -51.9962  -18.4811 C   0  0  0  0  0  0  0  0  0  0  0  0
    0.3111  -50.7842  -18.4475 C   0  0  0  0  0  0  0  0  0  0  0  0
    0.5102  -50.0821  -17.2605 C   0  0  0  0  0  0  0  0  0  0  0  0
   -0.5433  -52.6989  -19.7555 C   0  0  0  0  0  0  0  0  0  0  0  0
    0.1997  -52.4035  -20.8486 C   0  0  0  0  0  0  0  0  0  0  0  0
    0.0146  -53.0811  -22.0611 C   0  0  0  0  0  0  0  0  0  0  0  0
    0.7835  -52.7626  -23.1611 C   0  0  0  0  0  0  0  0  0  0  0  0
    0.5573  -53.4696  -24.3452 C   0  0  0  0  0  0  0  0  0  0  0  0
   -0.4173  -54.4559  -24.3830 C   0  0  0  0  0  0  0  0  0  0  0  0
   -0.5986  -55.1472  -25.6088 N   0  0  0  0  0  0  0  0  0  0  0  0
   -1.1581  -54.7471  -23.2858 N   0  0  0  0  0  0  0  0  0  0  0  0
   -0.9435  -54.0693  -22.1455 C   0  0  0  0  0  0  0  0  0  0  0  0
   -1.6907  -54.3489  -21.0036 C   0  0  0  0  0  0  0  0  0  0  0  0
   -1.4819  -53.6785  -19.8661 N   0  0  0  0  0  0  0  0  0  0  0  0
    0.2487  -55.4639  -26.1183 H   0  0  0  0  0  0  0  0  0  0  0  0
   -1.5325  -55.3342  -25.9899 H   0  0  0  0  0  0  0  0  0  0  0  0
    1.3558  -53.1253  -25.4844 C   0  0  0  0  0  0  0  0  0  0  0  0
    2.7287  -53.1242  -25.4120 C   0  0  0  0  0  0  0  0  0  0  0  0
    3.5183  -52.7926  -26.4790 C   0  0  0  0  0  0  0  0  0  0  0  0
    2.9368  -52.4457  -27.6730 C   0  0  0  0  0  0  0  0  0  0  0  0
    1.5642  -52.4342  -27.7871 C   0  0  0  0  0  0  0  0  0  0  0  0
    0.7888  -52.7756  -26.6858 C   0  0  0  0  0  0  0  0  0  0  0  0
    0.9964  -50.4339  -13.8269 C   0  0  0  0  0  0  0  0  0  0  0  0
    0.2050  -49.9319  -14.8559 O   0  0  0  0  0  0  0  0  0  0  0  0
    1.1895  -48.8401  -17.2257 N   0  0  0  0  0  0  0  0  0  0  0  0
    0.6599  -48.0183  -16.8160 H   0  0  0  0  0  0  0  0  0  0  0  0
    2.8015  -48.6071  -17.8081 S   0  0  0  0  0  0  0  0  0  0  0  0
    3.0919  -47.1257  -17.9003 O   0  0  0  0  0  0  0  0  0  0  0  0
    3.7620  -49.1561  -16.7950 O   0  0  0  0  0  0  0  0  0  0  0  0
    3.0857  -49.3721  -19.3325 C   0  0  0  0  0  0  0  0  0  0  0  0
    4.0042  -50.3869  -19.4622 C   0  0  0  0  0  0  0  0  0  0  0  0
    4.1955  -50.9742  -20.6976 C   0  0  0  0  0  0  0  0  0  0  0  0
    3.4810  -50.5584  -21.7963 C   0  0  0  0  0  0  0  0  0  0  0  0
    3.6571  -51.1287  -23.0282 F   0  0  0  0  0  0  0  0  0  0  0  0
    2.5488  -49.5355  -21.6868 C   0  0  0  0  0  0  0  0  0  0  0  0
    2.3812  -48.9697  -20.4400 C   0  0  0  0  0  0  0  0  0  0  0  0
    1.4806  -47.9691  -20.2945 F   0  0  0  0  0  0  0  0  0  0  0  0
 26 27  1  0  0  0
 27  1  1  0  0  0
  1  2  2  0  0  0
  2  3  1  0  0  0
  3  4  2  0  0  0
  4  7  1  0  0  0
  7  8  2  0  0  0
  8  9  1  0  0  0
  9 10  2  0  0  0
 10 11  1  0  0  0
 11 20  1  0  0  0
 20 21  2  0  0  0
 21 22  1  0  0  0
 22 23  2  0  0  0
 23 24  1  0  0  0
 24 25  2  0  0  0
 11 12  2  0  0  0
 12 13  1  0  0  0
 12 14  1  0  0  0
 14 15  2  0  0  0
 15 16  1  0  0  0
 16 17  2  0  0  0
  4  5  1  0  0  0
  5  6  2  0  0  0
  6 28  1  0  0  0
 28 30  1  0  0  0
 30 31  2  0  0  0
 30 32  2  0  0  0
 30 33  1  0  0  0
 33 34  2  0  0  0
 34 35  1  0  0  0
 35 36  2  0  0  0
 36 37  1  0  0  0
 36 38  1  0  0  0
 38 39  2  0  0  0
 39 40  1  0  0  0
  6  1  1  0  0  0
 39 33  1  0  0  0
 17  7  1  0  0  0
 15  9  1  0  0  0
 25 20  1  0  0  0
 13 18  1  0  0  0
 13 19  1  0  0  0
 28 29  1  0  0  0
M  END
> <minimizedAffinity>
-8.96381

> <CNNscore>
0.2927955389

> <CNNaffinity>
7.3056449890

> <CNN_VS>
2.1390602589

> <CNNaffinity_variance>
0.2343409956

$$$$
[H]c1nc(OC([H])([H])[H])c(N([H])S(=O)(=O)c2c([H])c([H])c(F)c([H])c2F)c([H])c1-c1nc([H])c2nc(N([H])[H])c(-c3c([H])c([H])c([H])c([H])c3[H])c([H])c2c1[H]


 40 44  0  0  0  0  0  0  0  0999 V2000
   -0.0589  -54.0117  -24.2097 C   0  0  0  0  0  0  0  0  0  0  0  0
   -0.7992  -54.1782  -23.1045 N   0  0  0  0  0  0  0  0  0  0  0  0
   -0.4802  -53.6082  -21.9004 C   0  0  0  0  0  0  0  0  0  0  0  0
    0.6374  -52.8230  -21.7685 C   0  0  0  0  0  0  0  0  0  0  0  0
    1.4074  -52.6464  -22.9060 C   0  0  0  0  0  0  0  0  0  0  0  0
    1.0712  -53.2321  -24.1248 C   0  0  0  0  0  0  0  0  0  0  0  0
    1.0319  -52.1858  -20.5073 C   0  0  0  0  0  0  0  0  0  0  0  0
    0.1264  -51.8794  -19.5481 C   0  0  0  0  0  0  0  0  0  0  0  0
    0.5140  -51.2709  -18.3468 C   0  0  0  0  0  0  0  0  0  0  0  0
   -0.4266  -50.9682  -17.3844 C   0  0  0  0  0  0  0  0  0  0  0  0
    0.0147  -50.3618  -16.2052 C   0  0  0  0  0  0  0  0  0  0  0  0
    1.3633  -50.0852  -16.0359 C   0  0  0  0  0  0  0  0  0  0  0  0
    1.7563  -49.4765  -14.8159 N   0  0  0  0  0  0  0  0  0  0  0  0
    2.2652  -50.3940  -16.9996 N   0  0  0  0  0  0  0  0  0  0  0  0
    1.8446  -50.9770  -18.1349 C   0  0  0  0  0  0  0  0  0  0  0  0
    2.7505  -51.3048  -19.1410 C   0  0  0  0  0  0  0  0  0  0  0  0
    2.3385  -51.8850  -20.2727 N   0  0  0  0  0  0  0  0  0  0  0  0
    1.3563  -49.8515  -13.9344 H   0  0  0  0  0  0  0  0  0  0  0  0
    2.4143  -48.6898  -14.7927 H   0  0  0  0  0  0  0  0  0  0  0  0
   -0.9717  -50.0438  -15.2152 C   0  0  0  0  0  0  0  0  0  0  0  0
   -1.6552  -48.8516  -15.2549 C   0  0  0  0  0  0  0  0  0  0  0  0
   -2.5964  -48.5154  -14.3205 C   0  0  0  0  0  0  0  0  0  0  0  0
   -2.8818  -49.3870  -13.2992 C   0  0  0  0  0  0  0  0  0  0  0  0
   -2.2188  -50.5920  -13.2234 C   0  0  0  0  0  0  0  0  0  0  0  0
   -1.2681  -50.9052  -14.1871 C   0  0  0  0  0  0  0  0  0  0  0  0
   -0.0572  -55.9174  -25.7620 C   0  0  0  0  0  0  0  0  0  0  0  0
   -0.4416  -54.6251  -25.4166 O   0  0  0  0  0  0  0  0  0  0  0  0
    1.8607  -53.0567  -25.2872 N   0  0  0  0  0  0  0  0  0  0  0  0
    2.7011  -53.6940  -25.3934 H   0  0  0  0  0  0  0  0  0  0  0  0
    1.5272  -51.8791  -26.5096 S   0  0  0  0  0  0  0  0  0  0  0  0
    1.2686  -50.5393  -25.8574 O   0  0  0  0  0  0  0  0  0  0  0  0
    2.7556  -51.7004  -27.3519 O   0  0  0  0  0  0  0  0  0  0  0  0
    0.2003  -52.3193  -27.5270 C   0  0  0  0  0  0  0  0  0  0  0  0
    0.4052  -52.8830  -28.7642 C   0  0  0  0  0  0  0  0  0  0  0  0
   -0.6837  -53.2249  -29.5420 C   0  0  0  0  0  0  0  0  0  0  0  0
   -1.9664  -53.0096  -29.0963 C   0  0  0  0  0  0  0  0  0  0  0  0
   -3.0575  -53.3420  -29.8532 F   0  0  0  0  0  0  0  0  0  0  0  0
   -2.1952  -52.4417  -27.8502 C   0  0  0  0  0  0  0  0  0  0  0  0
   -1.0872  -52.1115  -27.0979 C   0  0  0  0  0  0  0  0  0  0  0  0
   -1.2709  -51.5555  -25.8771 F   0  0  0  0  0  0  0  0  0  0  0  0
 26 27  1  0  0  0
 27  1  1  0  0  0
  1  2  2  0  0  0
  2  3  1  0  0  0
  3  4  2  0  0  0
  4  7  1  0  0  0
  7  8  2  0  0  0
  8  9  1  0  0  0
  9 10  2  0  0  0
 10 11  1  0  0  0
 11 20  1  0  0  0
 20 21  2  0  0  0
 21 22  1  0  0  0
 22 23  2  0  0  0
 23 24  1  0  0  0
 24 25  2  0  0  0
 11 12  2  0  0  0
 12 13  1  0  0  0
 12 14  1  0  0  0
 14 15  2  0  0  0
 15 16  1  0  0  0
 16 17  2  0  0  0
  4  5  1  0  0  0
  5  6  2  0  0  0
  6 28  1  0  0  0
 28 30  1  0  0  0
 30 31  2  0  0  0
 30 32  2  0  0  0
 30 33  1  0  0  0
 33 34  2  0  0  0
 34 35  1  0  0  0
 35 36  2  0  0  0
 36 37  1  0  0  0
 36 38  1  0  0  0
 38 39  2  0  0  0
 39 40  1  0  0  0
  6  1  1  0  0  0
 39 33  1  0  0  0
 17  7  1  0  0  0
 15  9  1  0  0  0
 25 20  1  0  0  0
 13 18  1  0  0  0
 13 19  1  0  0  0
 28 29  1  0  0  0
M  END
> <minimizedAffinity>
-8.75061

> <CNNscore>
0.2619847953

> <CNNaffinity>
7.1400690079

> <CNN_VS>
1.8705894947

> <CNNaffinity_variance>
0.2801505029

$$$$
[H]c1nc(OC([H])([H])[H])c(N([H])S(=O)(=O)c2c([H])c([H])c(F)c([H])c2F)c([H])c1-c1nc([H])c2nc(N([H])[H])c(-c3c([H])c([H])c([H])c([H])c3[H])c([H])c2c1[H]


 40 44  0  0  0  0  0  0  0  0999 V2000
   -0.5930  -54.0004  -24.2857 C   0  0  0  0  0  0  0  0  0  0  0  0
   -1.1336  -54.8271  -23.3793 N   0  0  0  0  0  0  0  0  0  0  0  0
   -1.1966  -54.5304  -22.0434 C   0  0  0  0  0  0  0  0  0  0  0  0
   -0.6975  -53.3464  -21.5620 C   0  0  0  0  0  0  0  0  0  0  0  0
   -0.1373  -52.4870  -22.4924 C   0  0  0  0  0  0  0  0  0  0  0  0
   -0.0799  -52.8012  -23.8487 C   0  0  0  0  0  0  0  0  0  0  0  0
   -0.7353  -52.9717  -20.1441 C   0  0  0  0  0  0  0  0  0  0  0  0
    0.1152  -52.0547  -19.6247 C   0  0  0  0  0  0  0  0  0  0  0  0
    0.0705  -51.7040  -18.2688 C   0  0  0  0  0  0  0  0  0  0  0  0
    0.9472  -50.7671  -17.7626 C   0  0  0  0  0  0  0  0  0  0  0  0
    0.8590  -50.4547  -16.4033 C   0  0  0  0  0  0  0  0  0  0  0  0
   -0.0913  -51.0836  -15.6124 C   0  0  0  0  0  0  0  0  0  0  0  0
   -0.1415  -50.7220  -14.2412 N   0  0  0  0  0  0  0  0  0  0  0  0
   -0.9400  -52.0008  -16.1377 N   0  0  0  0  0  0  0  0  0  0  0  0
   -0.8580  -52.3039  -17.4443 C   0  0  0  0  0  0  0  0  0  0  0  0
   -1.7180  -53.2427  -18.0093 C   0  0  0  0  0  0  0  0  0  0  0  0
   -1.6417  -53.5485  -19.3084 N   0  0  0  0  0  0  0  0  0  0  0  0
   -0.0904  -49.7130  -14.0022 H   0  0  0  0  0  0  0  0  0  0  0  0
   -0.2257  -51.4263  -13.5002 H   0  0  0  0  0  0  0  0  0  0  0  0
    1.7800  -49.4863  -15.8856 C   0  0  0  0  0  0  0  0  0  0  0  0
    1.4510  -48.1523  -15.8369 C   0  0  0  0  0  0  0  0  0  0  0  0
    2.3108  -47.2029  -15.3562 C   0  0  0  0  0  0  0  0  0  0  0  0
    3.5510  -47.5767  -14.9018 C   0  0  0  0  0  0  0  0  0  0  0  0
    3.9195  -48.9035  -14.9337 C   0  0  0  0  0  0  0  0  0  0  0  0
    3.0246  -49.8446  -15.4277 C   0  0  0  0  0  0  0  0  0  0  0  0
   -0.0283  -55.5716  -26.0895 C   0  0  0  0  0  0  0  0  0  0  0  0
   -0.5593  -54.3646  -25.6443 O   0  0  0  0  0  0  0  0  0  0  0  0
    0.4976  -51.9258  -24.8002 N   0  0  0  0  0  0  0  0  0  0  0  0
   -0.1600  -51.2564  -25.2932 H   0  0  0  0  0  0  0  0  0  0  0  0
    2.1833  -51.9007  -25.1874 S   0  0  0  0  0  0  0  0  0  0  0  0
    2.5783  -53.2290  -25.7931 O   0  0  0  0  0  0  0  0  0  0  0  0
    2.4154  -50.8725  -26.2549 O   0  0  0  0  0  0  0  0  0  0  0  0
    3.1838  -51.5395  -23.8243 C   0  0  0  0  0  0  0  0  0  0  0  0
    4.3117  -52.2766  -23.5507 C   0  0  0  0  0  0  0  0  0  0  0  0
    5.0857  -51.9498  -22.4544 C   0  0  0  0  0  0  0  0  0  0  0  0
    4.7437  -50.8997  -21.6354 C   0  0  0  0  0  0  0  0  0  0  0  0
    5.4986  -50.5612  -20.5447 F   0  0  0  0  0  0  0  0  0  0  0  0
    3.6090  -50.1427  -21.8939 C   0  0  0  0  0  0  0  0  0  0  0  0
    2.8575  -50.4943  -22.9959 C   0  0  0  0  0  0  0  0  0  0  0  0
    1.7436  -49.7789  -23.2799 F   0  0  0  0  0  0  0  0  0  0  0  0
 26 27  1  0  0  0
 27  1  1  0  0  0
  1  2  2  0  0  0
  2  3  1  0  0  0
  3  4  2  0  0  0
  4  7  1  0  0  0
  7  8  2  0  0  0
  8  9  1  0  0  0
  9 10  2  0  0  0
 10 11  1  0  0  0
 11 20  1  0  0  0
 20 21  2  0  0  0
 21 22  1  0  0  0
 22 23  2  0  0  0
 23 24  1  0  0  0
 24 25  2  0  0  0
 11 12  2  0  0  0
 12 13  1  0  0  0
 12 14  1  0  0  0
 14 15  2  0  0  0
 15 16  1  0  0  0
 16 17  2  0  0  0
  4  5  1  0  0  0
  5  6  2  0  0  0
  6 28  1  0  0  0
 28 30  1  0  0  0
 30 31  2  0  0  0
 30 32  2  0  0  0
 30 33  1  0  0  0
 33 34  2  0  0  0
 34 35  1  0  0  0
 35 36  2  0  0  0
 36 37  1  0  0  0
 36 38  1  0  0  0
 38 39  2  0  0  0
 39 40  1  0  0  0
  6  1  1  0  0  0
 39 33  1  0  0  0
 17  7  1  0  0  0
 15  9  1  0  0  0
 25 20  1  0  0  0
 13 18  1  0  0  0
 13 19  1  0  0  0
 28 29  1  0  0  0
M  END
> <minimizedAffinity>
-8.45681

> <CNNscore>
0.2593148947

> <CNNaffinity>
7.1917390823

> <CNN_VS>
1.8649250269

> <CNNaffinity_variance>
0.2286452949

$$$$
[H]c1nc(OC([H])([H])[H])c(N([H])S(=O)(=O)c2c([H])c([H])c(F)c([H])c2F)c([H])c1-c1nc([H])c2nc(N([H])[H])c(-c3c([H])c([H])c([H])c([H])c3[H])c([H])c2c1[H]


 40 44  0  0  0  0  0  0  0  0999 V2000
    3.6231  -49.1301  -25.5112 C   0  0  0  0  0  0  0  0  0  0  0  0
    3.0939  -50.3485  -25.6922 N   0  0  0  0  0  0  0  0  0  0  0  0
    2.3900  -51.0078  -24.7193 C   0  0  0  0  0  0  0  0  0  0  0  0
    2.1906  -50.4374  -23.4874 C   0  0  0  0  0  0  0  0  0  0  0  0
    2.7345  -49.1788  -23.2927 C   0  0  0  0  0  0  0  0  0  0  0  0
    3.4482  -48.5191  -24.2911 C   0  0  0  0  0  0  0  0  0  0  0  0
    1.4466  -51.0924  -22.4057 C   0  0  0  0  0  0  0  0  0  0  0  0
    1.4335  -50.5964  -21.1456 C   0  0  0  0  0  0  0  0  0  0  0  0
    0.7194  -51.2300  -20.1199 C   0  0  0  0  0  0  0  0  0  0  0  0
    0.7210  -50.7060  -18.8439 C   0  0  0  0  0  0  0  0  0  0  0  0
   -0.0079  -51.3780  -17.8590 C   0  0  0  0  0  0  0  0  0  0  0  0
   -0.7020  -52.5340  -18.1843 C   0  0  0  0  0  0  0  0  0  0  0  0
   -1.4317  -53.1705  -17.1470 N   0  0  0  0  0  0  0  0  0  0  0  0
   -0.6852  -53.0259  -19.4473 N   0  0  0  0  0  0  0  0  0  0  0  0
    0.0147  -52.3825  -20.3970 C   0  0  0  0  0  0  0  0  0  0  0  0
    0.0486  -52.8665  -21.7027 C   0  0  0  0  0  0  0  0  0  0  0  0
    0.7428  -52.2311  -22.6521 N   0  0  0  0  0  0  0  0  0  0  0  0
   -2.0059  -52.5747  -16.5202 H   0  0  0  0  0  0  0  0  0  0  0  0
   -1.4007  -54.1868  -17.0106 H   0  0  0  0  0  0  0  0  0  0  0  0
    0.0071  -50.8299  -16.5348 C   0  0  0  0  0  0  0  0  0  0  0  0
   -1.0050  -50.0087  -16.0974 C   0  0  0  0  0  0  0  0  0  0  0  0
   -1.0154  -49.4636  -14.8426 C   0  0  0  0  0  0  0  0  0  0  0  0
    0.0132  -49.7350  -13.9751 C   0  0  0  0  0  0  0  0  0  0  0  0
    1.0467  -50.5532  -14.3747 C   0  0  0  0  0  0  0  0  0  0  0  0
    1.0294  -51.0918  -15.6554 C   0  0  0  0  0  0  0  0  0  0  0  0
    5.7249  -48.5286  -26.6346 C   0  0  0  0  0  0  0  0  0  0  0  0
    4.3358  -48.5065  -26.5517 O   0  0  0  0  0  0  0  0  0  0  0  0
    4.0095  -47.2345  -24.0915 N   0  0  0  0  0  0  0  0  0  0  0  0
    4.9593  -47.1968  -23.6222 H   0  0  0  0  0  0  0  0  0  0  0  0
    3.2357  -45.7612  -24.5636 S   0  0  0  0  0  0  0  0  0  0  0  0
    1.8532  -45.7034  -23.9532 O   0  0  0  0  0  0  0  0  0  0  0  0
    3.9971  -44.6096  -23.9766 O   0  0  0  0  0  0  0  0  0  0  0  0
    3.1448  -45.5662  -26.2792 C   0  0  0  0  0  0  0  0  0  0  0  0
    1.9888  -45.8443  -26.9695 C   0  0  0  0  0  0  0  0  0  0  0  0
    1.9583  -45.6689  -28.3392 C   0  0  0  0  0  0  0  0  0  0  0  0
    3.0660  -45.2208  -29.0194 C   0  0  0  0  0  0  0  0  0  0  0  0
    3.0542  -45.0411  -30.3764 F   0  0  0  0  0  0  0  0  0  0  0  0
    4.2431  -44.9342  -28.3414 C   0  0  0  0  0  0  0  0  0  0  0  0
    4.2413  -45.1196  -26.9745 C   0  0  0  0  0  0  0  0  0  0  0  0
    5.3715  -44.8505  -26.2792 F   0  0  0  0  0  0  0  0  0  0  0  0
 26 27  1  0  0  0
 27  1  1  0  0  0
  1  2  2  0  0  0
  2  3  1  0  0  0
  3  4  2  0  0  0
  4  7  1  0  0  0
  7  8  2  0  0  0
  8  9  1  0  0  0
  9 10  2  0  0  0
 10 11  1  0  0  0
 11 20  1  0  0  0
 20 21  2  0  0  0
 21 22  1  0  0  0
 22 23  2  0  0  0
 23 24  1  0  0  0
 24 25  2  0  0  0
 11 12  2  0  0  0
 12 13  1  0  0  0
 12 14  1  0  0  0
 14 15  2  0  0  0
 15 16  1  0  0  0
 16 17  2  0  0  0
  4  5  1  0  0  0
  5  6  2  0  0  0
  6 28  1  0  0  0
 28 30  1  0  0  0
 30 31  2  0  0  0
 30 32  2  0  0  0
 30 33  1  0  0  0
 33 34  2  0  0  0
 34 35  1  0  0  0
 35 36  2  0  0  0
 36 37  1  0  0  0
 36 38  1  0  0  0
 38 39  2  0  0  0
 39 40  1  0  0  0
  6  1  1  0  0  0
 39 33  1  0  0  0
 17  7  1  0  0  0
 15  9  1  0  0  0
 25 20  1  0  0  0
 13 18  1  0  0  0
 13 19  1  0  0  0
 28 29  1  0  0  0
M  END
> <minimizedAffinity>
-7.68417

> <CNNscore>
0.2508754730

> <CNNaffinity>
6.6703324318

> <CNN_VS>
1.6734228134

> <CNNaffinity_variance>
0.1932680458

$$$$
[H]c1c([H])c(S(=O)(=O)C([H])([H])C([H])([H])C([H])([H])C([H])([H])C([H])([H])C([H])([H])[H])c(Cl)c(Cl)c1C(=O)C([H])([H])C([H])([H])N1C([H])([H])C1([H])C([H])([H])[H]


 25 26  0  0  0  0  0  0  0  0999 V2000
    1.4355  -51.8671  -21.6468 C   0  0  0  0  0  0  0  0  0  0  0  0
    1.6709  -51.3606  -22.9135 C   0  0  0  0  0  0  0  0  0  0  0  0
    1.0770  -51.9136  -24.0163 C   0  0  0  0  0  0  0  0  0  0  0  0
    0.2300  -52.9780  -23.9191 C   0  0  0  0  0  0  0  0  0  0  0  0
   -0.0209  -53.5098  -22.6473 C   0  0  0  0  0  0  0  0  0  0  0  0
   -1.1098  -54.8902  -22.5139 Cl  0  0  0  0  0  0  0  0  0  0  0  0
    0.5858  -52.9463  -21.5479 C   0  0  0  0  0  0  0  0  0  0  0  0
    0.2814  -53.6194  -19.9652 Cl  0  0  0  0  0  0  0  0  0  0  0  0
    2.1410  -51.0876  -20.2484 S   0  0  0  0  0  0  0  0  0  0  0  0
    3.0677  -49.9973  -20.7901 O   0  0  0  0  0  0  0  0  0  0  0  0
    2.8769  -52.0396  -19.3938 O   0  0  0  0  0  0  0  0  0  0  0  0
    0.7934  -50.3059  -19.3913 C   0  0  0  0  0  0  0  0  0  0  0  0
    1.2372  -49.5383  -18.1960 C   0  0  0  0  0  0  0  0  0  0  0  0
    0.2509  -49.8775  -17.0668 C   0  0  0  0  0  0  0  0  0  0  0  0
   -0.2044  -51.3020  -17.2163 C   0  0  0  0  0  0  0  0  0  0  0  0
   -2.0775  -52.8320  -17.1503 C   0  0  0  0  0  0  0  0  0  0  0  0
   -1.3843  -51.6980  -16.4055 C   0  0  0  0  0  0  0  0  0  0  0  0
   -0.5282  -53.5113  -25.0829 C   0  0  0  0  0  0  0  0  0  0  0  0
   -1.5345  -52.9737  -25.4459 O   0  0  0  0  0  0  0  0  0  0  0  0
    0.0558  -54.7028  -25.6938 C   0  0  0  0  0  0  0  0  0  0  0  0
    0.1696  -54.7534  -27.1660 C   0  0  0  0  0  0  0  0  0  0  0  0
    1.1531  -54.0586  -27.8565 N   0  0  0  0  0  0  0  0  0  0  0  0
    1.6548  -52.7699  -27.8348 C   0  0  0  0  0  0  0  0  0  0  0  0
    0.6610  -53.1689  -28.9276 C   0  0  0  0  0  0  0  0  0  0  0  0
   -0.7194  -52.6085  -28.7719 C   0  0  0  0  0  0  0  0  0  0  0  0
 16 17  1  0  0  0
 17 15  1  0  0  0
 15 14  1  0  0  0
 14 13  1  0  0  0
 13 12  1  0  0  0
 12  9  1  0  0  0
  9 10  2  0  0  0
  9 11  2  0  0  0
  9  1  1  0  0  0
  1  2  2  0  0  0
  2  3  1  0  0  0
  3  4  2  0  0  0
  4 18  1  0  0  0
 18 19  2  0  0  0
 18 20  1  0  0  0
 20 21  1  0  0  0
 21 22  1  0  0  0
 22 23  1  0  0  0
 23 24  1  0  0  0
 24 25  1  0  0  0
  4  5  1  0  0  0
  5  6  1  0  0  0
  5  7  2  0  0  0
  7  8  1  0  0  0
  7  1  1  0  0  0
 24 22  1  0  0  0
M  END
> <minimizedAffinity>
-6.86986

> <CNNscore>
0.6234228015

> <CNNaffinity>
6.9705481529

> <CNN_VS>
4.3455986977

> <CNNaffinity_variance>
0.0850271210

$$$$
[H]c1c([H])c(S(=O)(=O)C([H])([H])C([H])([H])C([H])([H])C([H])([H])C([H])([H])C([H])([H])[H])c(Cl)c(Cl)c1C(=O)C([H])([H])C([H])([H])N1C([H])([H])C1([H])C([H])([H])[H]


 25 26  0  0  0  0  0  0  0  0999 V2000
    1.3762  -51.7464  -21.1731 C   0  0  0  0  0  0  0  0  0  0  0  0
    1.7765  -51.4590  -22.4668 C   0  0  0  0  0  0  0  0  0  0  0  0
    1.1769  -52.0600  -23.5410 C   0  0  0  0  0  0  0  0  0  0  0  0
    0.1635  -52.9596  -23.3886 C   0  0  0  0  0  0  0  0  0  0  0  0
   -0.2566  -53.2687  -22.0881 C   0  0  0  0  0  0  0  0  0  0  0  0
   -1.5620  -54.4359  -21.8821 Cl  0  0  0  0  0  0  0  0  0  0  0  0
    0.3575  -52.6599  -21.0173 C   0  0  0  0  0  0  0  0  0  0  0  0
   -0.1593  -53.0569  -19.3969 Cl  0  0  0  0  0  0  0  0  0  0  0  0
    2.1023  -50.9004  -19.8248 S   0  0  0  0  0  0  0  0  0  0  0  0
    3.0204  -51.9097  -19.1325 O   0  0  0  0  0  0  0  0  0  0  0  0
    1.0897  -50.3699  -18.8913 O   0  0  0  0  0  0  0  0  0  0  0  0
    3.1094  -49.6189  -20.5355 C   0  0  0  0  0  0  0  0  0  0  0  0
    2.8082  -48.2723  -19.9782 C   0  0  0  0  0  0  0  0  0  0  0  0
    3.2641  -47.2503  -21.0322 C   0  0  0  0  0  0  0  0  0  0  0  0
    4.0876  -46.1839  -20.3663 C   0  0  0  0  0  0  0  0  0  0  0  0
    5.0081  -45.1130  -18.4017 C   0  0  0  0  0  0  0  0  0  0  0  0
    4.4142  -46.4107  -18.9352 C   0  0  0  0  0  0  0  0  0  0  0  0
   -0.5905  -53.5246  -24.5401 C   0  0  0  0  0  0  0  0  0  0  0  0
   -0.6923  -54.7102  -24.6723 O   0  0  0  0  0  0  0  0  0  0  0  0
   -1.1542  -52.5262  -25.4454 C   0  0  0  0  0  0  0  0  0  0  0  0
   -0.4331  -52.2293  -26.7004 C   0  0  0  0  0  0  0  0  0  0  0  0
    0.6172  -53.0151  -27.1540 N   0  0  0  0  0  0  0  0  0  0  0  0
    1.6966  -52.8327  -27.9994 C   0  0  0  0  0  0  0  0  0  0  0  0
    0.4535  -53.5589  -28.5173 C   0  0  0  0  0  0  0  0  0  0  0  0
   -0.3949  -52.7739  -29.4702 C   0  0  0  0  0  0  0  0  0  0  0  0
 16 17  1  0  0  0
 17 15  1  0  0  0
 15 14  1  0  0  0
 14 13  1  0  0  0
 13 12  1  0  0  0
 12  9  1  0  0  0
  9 10  2  0  0  0
  9 11  2  0  0  0
  9  1  1  0  0  0
  1  2  2  0  0  0
  2  3  1  0  0  0
  3  4  2  0  0  0
  4 18  1  0  0  0
 18 19  2  0  0  0
 18 20  1  0  0  0
 20 21  1  0  0  0
 21 22  1  0  0  0
 22 23  1  0  0  0
 23 24  1  0  0  0
 24 25  1  0  0  0
  4  5  1  0  0  0
  5  6  1  0  0  0
  5  7  2  0  0  0
  7  8  1  0  0  0
  7  1  1  0  0  0
 24 22  1  0  0  0
M  END
> <minimizedAffinity>
-5.84890

> <CNNscore>
0.6049085855

> <CNNaffinity>
6.7858543396

> <CNN_VS>
4.1048216820

> <CNNaffinity_variance>
0.0880817547

$$$$
[H]c1c([H])c(S(=O)(=O)C([H])([H])C([H])([H])C([H])([H])C([H])([H])C([H])([H])C([H])([H])[H])c(Cl)c(Cl)c1C(=O)C([H])([H])C([H])([H])N1C([H])([H])C1([H])C([H])([H])[H]


 25 26  0  0  0  0  0  0  0  0999 V2000
    0.3671  -52.2366  -23.6683 C   0  0  0  0  0  0  0  0  0  0  0  0
    1.1084  -51.1008  -23.3910 C   0  0  0  0  0  0  0  0  0  0  0  0
    1.6378  -50.8901  -22.1461 C   0  0  0  0  0  0  0  0  0  0  0  0
    1.4643  -51.7833  -21.1303 C   0  0  0  0  0  0  0  0  0  0  0  0
    0.7147  -52.9391  -21.3866 C   0  0  0  0  0  0  0  0  0  0  0  0
    0.4801  -54.0958  -20.0767 Cl  0  0  0  0  0  0  0  0  0  0  0  0
    0.1852  -53.1362  -22.6417 C   0  0  0  0  0  0  0  0  0  0  0  0
   -0.7598  -54.5714  -22.9546 Cl  0  0  0  0  0  0  0  0  0  0  0  0
   -0.2250  -52.5200  -25.2901 S   0  0  0  0  0  0  0  0  0  0  0  0
   -0.1442  -51.1749  -26.0147 O   0  0  0  0  0  0  0  0  0  0  0  0
   -1.6031  -53.0483  -25.2941 O   0  0  0  0  0  0  0  0  0  0  0  0
    0.9335  -53.6370  -26.0464 C   0  0  0  0  0  0  0  0  0  0  0  0
    0.3581  -54.3645  -27.2102 C   0  0  0  0  0  0  0  0  0  0  0  0
    0.8767  -53.6537  -28.4707 C   0  0  0  0  0  0  0  0  0  0  0  0
   -0.1564  -52.6719  -28.9477 C   0  0  0  0  0  0  0  0  0  0  0  0
   -2.5253  -52.5004  -28.4865 C   0  0  0  0  0  0  0  0  0  0  0  0
   -1.4795  -53.2419  -29.3097 C   0  0  0  0  0  0  0  0  0  0  0  0
    2.1379  -51.6422  -19.8113 C   0  0  0  0  0  0  0  0  0  0  0  0
    3.1067  -52.2971  -19.5545 O   0  0  0  0  0  0  0  0  0  0  0  0
    1.5145  -50.6747  -18.9115 C   0  0  0  0  0  0  0  0  0  0  0  0
    0.1286  -50.9235  -18.4636 C   0  0  0  0  0  0  0  0  0  0  0  0
   -0.1822  -51.8989  -17.5263 N   0  0  0  0  0  0  0  0  0  0  0  0
   -1.3221  -52.2943  -16.8501 C   0  0  0  0  0  0  0  0  0  0  0  0
   -0.2902  -51.4214  -16.1330 C   0  0  0  0  0  0  0  0  0  0  0  0
   -0.6929  -49.9932  -15.9280 C   0  0  0  0  0  0  0  0  0  0  0  0
 16 17  1  0  0  0
 17 15  1  0  0  0
 15 14  1  0  0  0
 14 13  1  0  0  0
 13 12  1  0  0  0
 12  9  1  0  0  0
  9 10  2  0  0  0
  9 11  2  0  0  0
  9  1  1  0  0  0
  1  2  2  0  0  0
  2  3  1  0  0  0
  3  4  2  0  0  0
  4 18  1  0  0  0
 18 19  2  0  0  0
 18 20  1  0  0  0
 20 21  1  0  0  0
 21 22  1  0  0  0
 22 23  1  0  0  0
 23 24  1  0  0  0
 24 25  1  0  0  0
  4  5  1  0  0  0
  5  6  1  0  0  0
  5  7  2  0  0  0
  7  8  1  0  0  0
  7  1  1  0  0  0
 24 22  1  0  0  0
M  END
> <minimizedAffinity>
-6.57425

> <CNNscore>
0.5899197459

> <CNNaffinity>
6.6240262985

> <CNN_VS>
3.9076437950

> <CNNaffinity_variance>
0.2906146944

$$$$
[H]c1c([H])c(S(=O)(=O)C([H])([H])C([H])([H])C([H])([H])C([H])([H])C([H])([H])C([H])([H])[H])c(Cl)c(Cl)c1C(=O)C([H])([H])C([H])([H])N1C([H])([H])C1([H])C([H])([H])[H]


 25 26  0  0  0  0  0  0  0  0999 V2000
    1.5022  -51.9320  -21.6355 C   0  0  0  0  0  0  0  0  0  0  0  0
    1.7475  -51.4269  -22.9009 C   0  0  0  0  0  0  0  0  0  0  0  0
    1.1351  -51.9586  -24.0039 C   0  0  0  0  0  0  0  0  0  0  0  0
    0.2593  -52.9995  -23.9084 C   0  0  0  0  0  0  0  0  0  0  0  0
   -0.0023  -53.5295  -22.6380 C   0  0  0  0  0  0  0  0  0  0  0  0
   -1.1285  -54.8798  -22.5067 Cl  0  0  0  0  0  0  0  0  0  0  0  0
    0.6233  -52.9876  -21.5383 C   0  0  0  0  0  0  0  0  0  0  0  0
    0.3053  -53.6588  -19.9574 Cl  0  0  0  0  0  0  0  0  0  0  0  0
    2.2334  -51.1782  -20.2362 S   0  0  0  0  0  0  0  0  0  0  0  0
    3.0999  -50.0362  -20.7709 O   0  0  0  0  0  0  0  0  0  0  0  0
    3.0345  -52.1329  -19.4457 O   0  0  0  0  0  0  0  0  0  0  0  0
    0.8933  -50.4773  -19.3009 C   0  0  0  0  0  0  0  0  0  0  0  0
    1.2726  -49.2185  -18.6035 C   0  0  0  0  0  0  0  0  0  0  0  0
    1.1501  -49.4987  -17.0970 C   0  0  0  0  0  0  0  0  0  0  0  0
    2.4750  -49.9749  -16.5710 C   0  0  0  0  0  0  0  0  0  0  0  0
    3.8222  -51.5163  -15.2815 C   0  0  0  0  0  0  0  0  0  0  0  0
    2.4200  -50.9435  -15.4463 C   0  0  0  0  0  0  0  0  0  0  0  0
   -0.5171  -53.5067  -25.0718 C   0  0  0  0  0  0  0  0  0  0  0  0
   -1.5046  -52.9351  -25.4347 O   0  0  0  0  0  0  0  0  0  0  0  0
    0.0256  -54.7177  -25.6827 C   0  0  0  0  0  0  0  0  0  0  0  0
    0.1673  -54.7599  -27.1528 C   0  0  0  0  0  0  0  0  0  0  0  0
    1.1687  -54.0679  -27.8199 N   0  0  0  0  0  0  0  0  0  0  0  0
    1.6619  -52.7760  -27.7987 C   0  0  0  0  0  0  0  0  0  0  0  0
    0.7066  -53.1950  -28.9179 C   0  0  0  0  0  0  0  0  0  0  0  0
   -0.6814  -52.6413  -28.8145 C   0  0  0  0  0  0  0  0  0  0  0  0
 16 17  1  0  0  0
 17 15  1  0  0  0
 15 14  1  0  0  0
 14 13  1  0  0  0
 13 12  1  0  0  0
 12  9  1  0  0  0
  9 10  2  0  0  0
  9 11  2  0  0  0
  9  1  1  0  0  0
  1  2  2  0  0  0
  2  3  1  0  0  0
  3  4  2  0  0  0
  4 18  1  0  0  0
 18 19  2  0  0  0
 18 20  1  0  0  0
 20 21  1  0  0  0
 21 22  1  0  0  0
 22 23  1  0  0  0
 23 24  1  0  0  0
 24 25  1  0  0  0
  4  5  1  0  0  0
  5  6  1  0  0  0
  5  7  2  0  0  0
  7  8  1  0  0  0
  7  1  1  0  0  0
 24 22  1  0  0  0
M  END
> <minimizedAffinity>
-6.47726

> <CNNscore>
0.5756276250

> <CNNaffinity>
6.8146195412

> <CNN_VS>
3.9226832390

> <CNNaffinity_variance>
0.0882564411

$$$$
[H]c1c([H])c(S(=O)(=O)C([H])([H])C([H])([H])C([H])([H])C([H])([H])C([H])([H])C([H])([H])[H])c(Cl)c(Cl)c1C(=O)C([H])([H])C([H])([H])N1C([H])([H])C1([H])C([H])([H])[H]


 25 26  0  0  0  0  0  0  0  0999 V2000
    1.4815  -51.8691  -21.6349 C   0  0  0  0  0  0  0  0  0  0  0  0
    1.7553  -51.4068  -22.9108 C   0  0  0  0  0  0  0  0  0  0  0  0
    1.1547  -51.9645  -24.0075 C   0  0  0  0  0  0  0  0  0  0  0  0
    0.2633  -52.9905  -23.8952 C   0  0  0  0  0  0  0  0  0  0  0  0
   -0.0271  -53.4773  -22.6138 C   0  0  0  0  0  0  0  0  0  0  0  0
   -1.1736  -54.8081  -22.4606 Cl  0  0  0  0  0  0  0  0  0  0  0  0
    0.5868  -52.9097  -21.5205 C   0  0  0  0  0  0  0  0  0  0  0  0
    0.2328  -53.5271  -19.9255 Cl  0  0  0  0  0  0  0  0  0  0  0  0
    2.1988  -51.0817  -20.2470 S   0  0  0  0  0  0  0  0  0  0  0  0
    2.9428  -52.1731  -19.4747 O   0  0  0  0  0  0  0  0  0  0  0  0
    1.1878  -50.4206  -19.3990 O   0  0  0  0  0  0  0  0  0  0  0  0
    3.3947  -49.9374  -20.8966 C   0  0  0  0  0  0  0  0  0  0  0  0
    4.7968  -50.3337  -20.5936 C   0  0  0  0  0  0  0  0  0  0  0  0
    5.2364  -51.2832  -21.7199 C   0  0  0  0  0  0  0  0  0  0  0  0
    5.7828  -50.4766  -22.8643 C   0  0  0  0  0  0  0  0  0  0  0  0
    5.2765  -52.3241  -24.3421 C   0  0  0  0  0  0  0  0  0  0  0  0
    5.2462  -50.8067  -24.2095 C   0  0  0  0  0  0  0  0  0  0  0  0
   -0.4999  -53.5235  -25.0558 C   0  0  0  0  0  0  0  0  0  0  0  0
   -1.5163  -52.9954  -25.4044 O   0  0  0  0  0  0  0  0  0  0  0  0
    0.0926  -54.7027  -25.6824 C   0  0  0  0  0  0  0  0  0  0  0  0
    0.1662  -54.7522  -27.1573 C   0  0  0  0  0  0  0  0  0  0  0  0
    1.1466  -54.0781  -27.8723 N   0  0  0  0  0  0  0  0  0  0  0  0
    1.6755  -52.8002  -27.8638 C   0  0  0  0  0  0  0  0  0  0  0  0
    0.6469  -53.1784  -28.9314 C   0  0  0  0  0  0  0  0  0  0  0  0
   -0.7172  -52.5892  -28.7419 C   0  0  0  0  0  0  0  0  0  0  0  0
 16 17  1  0  0  0
 17 15  1  0  0  0
 15 14  1  0  0  0
 14 13  1  0  0  0
 13 12  1  0  0  0
 12  9  1  0  0  0
  9 10  2  0  0  0
  9 11  2  0  0  0
  9  1  1  0  0  0
  1  2  2  0  0  0
  2  3  1  0  0  0
  3  4  2  0  0  0
  4 18  1  0  0  0
 18 19  2  0  0  0
 18 20  1  0  0  0
 20 21  1  0  0  0
 21 22  1  0  0  0
 22 23  1  0  0  0
 23 24  1  0  0  0
 24 25  1  0  0  0
  4  5  1  0  0  0
  5  6  1  0  0  0
  5  7  2  0  0  0
  7  8  1  0  0  0
  7  1  1  0  0  0
 24 22  1  0  0  0
M  END
> <minimizedAffinity>
-6.53888

> <CNNscore>
0.5551838875

> <CNNaffinity>
6.8835015297

> <CNN_VS>
3.8216090202

> <CNNaffinity_variance>
0.2293392420

$$$$
[H]c1c([H])c(S(=O)(=O)C([H])([H])C([H])([H])C([H])([H])C([H])([H])C([H])([H])C([H])([H])[H])c(Cl)c(Cl)c1C(=O)C([H])([H])C([H])([H])N1C([H])([H])C1([H])C([H])([H])[H]


 25 26  0  0  0  0  0  0  0  0999 V2000
    1.3277  -51.9114  -21.6101 C   0  0  0  0  0  0  0  0  0  0  0  0
    1.6278  -51.4324  -22.8738 C   0  0  0  0  0  0  0  0  0  0  0  0
    1.0637  -51.9873  -23.9911 C   0  0  0  0  0  0  0  0  0  0  0  0
    0.1845  -53.0267  -23.9122 C   0  0  0  0  0  0  0  0  0  0  0  0
   -0.1320  -53.5305  -22.6436 C   0  0  0  0  0  0  0  0  0  0  0  0
   -1.2630  -54.8787  -22.5333 Cl  0  0  0  0  0  0  0  0  0  0  0  0
    0.4453  -52.9655  -21.5292 C   0  0  0  0  0  0  0  0  0  0  0  0
    0.0590  -53.6040  -19.9500 Cl  0  0  0  0  0  0  0  0  0  0  0  0
    1.9976  -51.1282  -20.1963 S   0  0  0  0  0  0  0  0  0  0  0  0
    2.9174  -52.1564  -19.5347 O   0  0  0  0  0  0  0  0  0  0  0  0
    0.9482  -50.6710  -19.2646 O   0  0  0  0  0  0  0  0  0  0  0  0
    2.9966  -49.7891  -20.8051 C   0  0  0  0  0  0  0  0  0  0  0  0
    4.3288  -49.7168  -20.1457 C   0  0  0  0  0  0  0  0  0  0  0  0
    4.3351  -48.4252  -19.3121 C   0  0  0  0  0  0  0  0  0  0  0  0
    4.0042  -48.7546  -17.8835 C   0  0  0  0  0  0  0  0  0  0  0  0
    2.4208  -48.9947  -16.0700 C   0  0  0  0  0  0  0  0  0  0  0  0
    2.6775  -48.2951  -17.3988 C   0  0  0  0  0  0  0  0  0  0  0  0
   -0.5408  -53.5585  -25.0974 C   0  0  0  0  0  0  0  0  0  0  0  0
   -1.5451  -53.0298  -25.4784 O   0  0  0  0  0  0  0  0  0  0  0  0
    0.0714  -54.7374  -25.7053 C   0  0  0  0  0  0  0  0  0  0  0  0
    0.2425  -54.7623  -27.1727 C   0  0  0  0  0  0  0  0  0  0  0  0
    1.2172  -54.0128  -27.8168 N   0  0  0  0  0  0  0  0  0  0  0  0
    1.6474  -52.6992  -27.7701 C   0  0  0  0  0  0  0  0  0  0  0  0
    0.7266  -53.1461  -28.9073 C   0  0  0  0  0  0  0  0  0  0  0  0
   -0.6875  -52.6612  -28.8129 C   0  0  0  0  0  0  0  0  0  0  0  0
 16 17  1  0  0  0
 17 15  1  0  0  0
 15 14  1  0  0  0
 14 13  1  0  0  0
 13 12  1  0  0  0
 12  9  1  0  0  0
  9 10  2  0  0  0
  9 11  2  0  0  0
  9  1  1  0  0  0
  1  2  2  0  0  0
  2  3  1  0  0  0
  3  4  2  0  0  0
  4 18  1  0  0  0
 18 19  2  0  0  0
 18 20  1  0  0  0
 20 21  1  0  0  0
 21 22  1  0  0  0
 22 23  1  0  0  0
 23 24  1  0  0  0
 24 25  1  0  0  0
  4  5  1  0  0  0
  5  6  1  0  0  0
  5  7  2  0  0  0
  7  8  1  0  0  0
  7  1  1  0  0  0
 24 22  1  0  0  0
M  END
> <minimizedAffinity>
-6.06925

> <CNNscore>
0.5329901576

> <CNNaffinity>
6.8431863785

> <CNN_VS>
3.6473510265

> <CNNaffinity_variance>
0.0653509796

$$$$
[H]c1c([H])c(S(=O)(=O)C([H])([H])C([H])([H])C([H])([H])C([H])([H])C([H])([H])C([H])([H])[H])c(Cl)c(Cl)c1C(=O)C([H])([H])C([H])([H])N1C([H])([H])C1([H])C([H])([H])[H]


 25 26  0  0  0  0  0  0  0  0999 V2000
    0.4567  -52.8610  -23.4378 C   0  0  0  0  0  0  0  0  0  0  0  0
    1.3553  -51.8081  -23.4250 C   0  0  0  0  0  0  0  0  0  0  0  0
    1.8661  -51.3305  -22.2478 C   0  0  0  0  0  0  0  0  0  0  0  0
    1.5192  -51.8673  -21.0432 C   0  0  0  0  0  0  0  0  0  0  0  0
    0.6084  -52.9321  -21.0311 C   0  0  0  0  0  0  0  0  0  0  0  0
    0.1497  -53.6274  -19.4771 Cl  0  0  0  0  0  0  0  0  0  0  0  0
    0.1002  -53.3997  -22.2216 C   0  0  0  0  0  0  0  0  0  0  0  0
   -1.0449  -54.7184  -22.2026 Cl  0  0  0  0  0  0  0  0  0  0  0  0
   -0.1137  -53.5053  -24.9611 S   0  0  0  0  0  0  0  0  0  0  0  0
   -1.3878  -54.2900  -24.6421 O   0  0  0  0  0  0  0  0  0  0  0  0
    0.8942  -54.3636  -25.6137 O   0  0  0  0  0  0  0  0  0  0  0  0
   -0.5536  -52.0977  -25.9545 C   0  0  0  0  0  0  0  0  0  0  0  0
   -1.9310  -52.1913  -26.5103 C   0  0  0  0  0  0  0  0  0  0  0  0
   -1.7804  -52.5767  -27.9908 C   0  0  0  0  0  0  0  0  0  0  0  0
   -0.3469  -52.4003  -28.4065 C   0  0  0  0  0  0  0  0  0  0  0  0
    1.7306  -53.6069  -28.6923 C   0  0  0  0  0  0  0  0  0  0  0  0
    0.2702  -53.5464  -29.1221 C   0  0  0  0  0  0  0  0  0  0  0  0
    2.1587  -51.4549  -19.7647 C   0  0  0  0  0  0  0  0  0  0  0  0
    3.1414  -52.0152  -19.3724 O   0  0  0  0  0  0  0  0  0  0  0  0
    1.4860  -50.3561  -19.0759 C   0  0  0  0  0  0  0  0  0  0  0  0
    1.1062  -50.5422  -17.6602 C   0  0  0  0  0  0  0  0  0  0  0  0
    0.0540  -49.8482  -17.0790 N   0  0  0  0  0  0  0  0  0  0  0  0
   -0.2153  -49.3252  -15.8273 C   0  0  0  0  0  0  0  0  0  0  0  0
   -0.8442  -50.6597  -16.2330 C   0  0  0  0  0  0  0  0  0  0  0  0
   -0.2564  -51.8699  -15.5745 C   0  0  0  0  0  0  0  0  0  0  0  0
 16 17  1  0  0  0
 17 15  1  0  0  0
 15 14  1  0  0  0
 14 13  1  0  0  0
 13 12  1  0  0  0
 12  9  1  0  0  0
  9 10  2  0  0  0
  9 11  2  0  0  0
  9  1  1  0  0  0
  1  2  2  0  0  0
  2  3  1  0  0  0
  3  4  2  0  0  0
  4 18  1  0  0  0
 18 19  2  0  0  0
 18 20  1  0  0  0
 20 21  1  0  0  0
 21 22  1  0  0  0
 22 23  1  0  0  0
 23 24  1  0  0  0
 24 25  1  0  0  0
  4  5  1  0  0  0
  5  6  1  0  0  0
  5  7  2  0  0  0
  7  8  1  0  0  0
  7  1  1  0  0  0
 24 22  1  0  0  0
M  END
> <minimizedAffinity>
-6.21499

> <CNNscore>
0.5287907124

> <CNNaffinity>
6.6752920151

> <CNN_VS>
3.5298323631

> <CNNaffinity_variance>
0.2907025218

$$$$
[H]c1c([H])c(S(=O)(=O)C([H])([H])C([H])([H])C([H])([H])C([H])([H])C([H])([H])C([H])([H])[H])c(Cl)c(Cl)c1C(=O)C([H])([H])C([H])([H])N1C([H])([H])C1([H])C([H])([H])[H]


 25 26  0  0  0  0  0  0  0  0999 V2000
    1.2544  -51.8523  -21.5502 C   0  0  0  0  0  0  0  0  0  0  0  0
    1.4797  -51.2752  -22.7882 C   0  0  0  0  0  0  0  0  0  0  0  0
    0.9361  -51.8099  -23.9254 C   0  0  0  0  0  0  0  0  0  0  0  0
    0.1510  -52.9244  -23.8919 C   0  0  0  0  0  0  0  0  0  0  0  0
   -0.0884  -53.5278  -22.6502 C   0  0  0  0  0  0  0  0  0  0  0  0
   -1.0971  -54.9730  -22.5990 Cl  0  0  0  0  0  0  0  0  0  0  0  0
    0.4674  -52.9818  -21.5156 C   0  0  0  0  0  0  0  0  0  0  0  0
    0.1781  -53.7436  -19.9707 Cl  0  0  0  0  0  0  0  0  0  0  0  0
    1.8916  -51.0990  -20.1054 S   0  0  0  0  0  0  0  0  0  0  0  0
    2.9432  -52.0619  -19.5506 O   0  0  0  0  0  0  0  0  0  0  0  0
    0.8371  -50.8264  -19.1095 O   0  0  0  0  0  0  0  0  0  0  0  0
    2.7144  -49.6185  -20.6468 C   0  0  0  0  0  0  0  0  0  0  0  0
    4.1819  -49.8017  -20.8131 C   0  0  0  0  0  0  0  0  0  0  0  0
    4.5497  -49.1799  -22.1701 C   0  0  0  0  0  0  0  0  0  0  0  0
    3.7917  -47.8945  -22.3492 C   0  0  0  0  0  0  0  0  0  0  0  0
    3.6247  -48.8361  -24.5716 C   0  0  0  0  0  0  0  0  0  0  0  0
    3.2987  -47.6142  -23.7220 C   0  0  0  0  0  0  0  0  0  0  0  0
   -0.5568  -53.4460  -25.0921 C   0  0  0  0  0  0  0  0  0  0  0  0
   -1.5457  -52.9034  -25.4936 O   0  0  0  0  0  0  0  0  0  0  0  0
    0.0514  -54.6332  -25.6877 C   0  0  0  0  0  0  0  0  0  0  0  0
    0.1502  -54.7083  -27.1600 C   0  0  0  0  0  0  0  0  0  0  0  0
    1.1438  -54.0482  -27.8696 N   0  0  0  0  0  0  0  0  0  0  0  0
    1.6688  -52.7686  -27.8802 C   0  0  0  0  0  0  0  0  0  0  0  0
    0.6645  -53.1756  -28.9604 C   0  0  0  0  0  0  0  0  0  0  0  0
   -0.7051  -52.5867  -28.8144 C   0  0  0  0  0  0  0  0  0  0  0  0
 16 17  1  0  0  0
 17 15  1  0  0  0
 15 14  1  0  0  0
 14 13  1  0  0  0
 13 12  1  0  0  0
 12  9  1  0  0  0
  9 10  2  0  0  0
  9 11  2  0  0  0
  9  1  1  0  0  0
  1  2  2  0  0  0
  2  3  1  0  0  0
  3  4  2  0  0  0
  4 18  1  0  0  0
 18 19  2  0  0  0
 18 20  1  0  0  0
 20 21  1  0  0  0
 21 22  1  0  0  0
 22 23  1  0  0  0
 23 24  1  0  0  0
 24 25  1  0  0  0
  4  5  1  0  0  0
  5  6  1  0  0  0
  5  7  2  0  0  0
  7  8  1  0  0  0
  7  1  1  0  0  0
 24 22  1  0  0  0
M  END
> <minimizedAffinity>
-6.29281

> <CNNscore>
0.4558998942

> <CNNaffinity>
6.8489542007

> <CNN_VS>
3.1224374771

> <CNNaffinity_variance>
0.1346820593

$$$$
[H]c1c([H])c(S(=O)(=O)C([H])([H])C([H])([H])C([H])([H])C([H])([H])C([H])([H])C([H])([H])[H])c(Cl)c(Cl)c1C(=O)C([H])([H])C([H])([H])N1C([H])([H])C1([H])C([H])([H])[H]


 25 26  0  0  0  0  0  0  0  0999 V2000
   -0.4147  -53.5566  -23.2238 C   0  0  0  0  0  0  0  0  0  0  0  0
   -0.0351  -52.2651  -23.5466 C   0  0  0  0  0  0  0  0  0  0  0  0
    0.3326  -51.9359  -24.8237 C   0  0  0  0  0  0  0  0  0  0  0  0
    0.3388  -52.8563  -25.8300 C   0  0  0  0  0  0  0  0  0  0  0  0
   -0.0386  -54.1711  -25.5262 C   0  0  0  0  0  0  0  0  0  0  0  0
   -0.0269  -55.3686  -26.8203 Cl  0  0  0  0  0  0  0  0  0  0  0  0
   -0.4023  -54.4887  -24.2374 C   0  0  0  0  0  0  0  0  0  0  0  0
   -0.8597  -56.1313  -23.8588 Cl  0  0  0  0  0  0  0  0  0  0  0  0
   -0.9605  -53.9285  -21.6036 S   0  0  0  0  0  0  0  0  0  0  0  0
    0.0968  -54.8546  -20.9993 O   0  0  0  0  0  0  0  0  0  0  0  0
   -2.2933  -54.5623  -21.5981 O   0  0  0  0  0  0  0  0  0  0  0  0
   -0.9358  -52.3897  -20.7130 C   0  0  0  0  0  0  0  0  0  0  0  0
   -0.2295  -52.4900  -19.4070 C   0  0  0  0  0  0  0  0  0  0  0  0
    0.8860  -51.4324  -19.4301 C   0  0  0  0  0  0  0  0  0  0  0  0
    2.1446  -52.0499  -19.9717 C   0  0  0  0  0  0  0  0  0  0  0  0
    1.9992  -50.1035  -21.4014 C   0  0  0  0  0  0  0  0  0  0  0  0
    2.6722  -51.4594  -21.2284 C   0  0  0  0  0  0  0  0  0  0  0  0
    0.6058  -52.4954  -27.2484 C   0  0  0  0  0  0  0  0  0  0  0  0
   -0.2988  -52.2165  -27.9815 O   0  0  0  0  0  0  0  0  0  0  0  0
    2.0163  -52.5258  -27.6276 C   0  0  0  0  0  0  0  0  0  0  0  0
    2.9588  -51.6528  -26.8977 C   0  0  0  0  0  0  0  0  0  0  0  0
    2.8800  -50.2682  -26.9539 N   0  0  0  0  0  0  0  0  0  0  0  0
    3.7876  -49.2246  -26.9606 C   0  0  0  0  0  0  0  0  0  0  0  0
    3.0576  -49.5746  -25.6623 C   0  0  0  0  0  0  0  0  0  0  0  0
    3.8918  -50.2618  -24.6251 C   0  0  0  0  0  0  0  0  0  0  0  0
 16 17  1  0  0  0
 17 15  1  0  0  0
 15 14  1  0  0  0
 14 13  1  0  0  0
 13 12  1  0  0  0
 12  9  1  0  0  0
  9 10  2  0  0  0
  9 11  2  0  0  0
  9  1  1  0  0  0
  1  2  2  0  0  0
  2  3  1  0  0  0
  3  4  2  0  0  0
  4 18  1  0  0  0
 18 19  2  0  0  0
 18 20  1  0  0  0
 20 21  1  0  0  0
 21 22  1  0  0  0
 22 23  1  0  0  0
 23 24  1  0  0  0
 24 25  1  0  0  0
  4  5  1  0  0  0
  5  6  1  0  0  0
  5  7  2  0  0  0
  7  8  1  0  0  0
  7  1  1  0  0  0
 24 22  1  0  0  0
M  END
> <minimizedAffinity>
-5.61147

> <CNNscore>
0.4299149513

> <CNNaffinity>
6.6971907616

> <CNN_VS>
2.8792223930

> <CNNaffinity_variance>
0.1357850134

$$$$
[H]OC([H])([H])C([H])([H])N1C([H])([H])C([H])([H])N(c2c(Cl)c([H])c3nc(SC(C([H])([H])[H])(C([H])([H])[H])C([H])([H])[H])n([H])c3c2[H])[C@]([H])(C([H])([H])[H])C1([H])[H]


 27 29  0  0  0  0  0  0  0  0999 V2000
    0.9964  -51.7305  -20.7650 C   0  0  0  0  0  0  0  0  0  0  0  0
    1.3817  -51.7661  -22.1164 C   0  0  0  0  0  0  0  0  0  0  0  0
    0.8049  -52.6214  -23.0239 C   0  0  0  0  0  0  0  0  0  0  0  0
    1.0279  -52.8071  -24.3379 N   0  0  0  0  0  0  0  0  0  0  0  0
    0.1782  -53.7733  -24.7289 C   0  0  0  0  0  0  0  0  0  0  0  0
   -0.5585  -54.1819  -23.6832 N   0  0  0  0  0  0  0  0  0  0  0  0
   -0.2046  -53.4913  -22.5912 C   0  0  0  0  0  0  0  0  0  0  0  0
   -0.5943  -53.4691  -21.2684 C   0  0  0  0  0  0  0  0  0  0  0  0
    0.0009  -52.5966  -20.3620 C   0  0  0  0  0  0  0  0  0  0  0  0
   -0.5524  -52.6690  -18.6993 Cl  0  0  0  0  0  0  0  0  0  0  0  0
    1.7328  -52.2809  -24.9024 H   0  0  0  0  0  0  0  0  0  0  0  0
    0.8840  -48.6333  -20.8965 C   0  0  0  0  0  0  0  0  0  0  0  0
    1.3459  -49.4159  -19.7451 C   0  0  0  0  0  0  0  0  0  0  0  0
    2.6739  -48.7715  -19.3265 C   0  0  0  0  0  0  0  0  0  0  0  0
    2.8645  -49.0197  -17.9287 N   0  0  0  0  0  0  0  0  0  0  0  0
    2.5908  -50.3846  -17.6783 C   0  0  0  0  0  0  0  0  0  0  0  0
    2.6289  -51.2330  -18.9769 C   0  0  0  0  0  0  0  0  0  0  0  0
    1.6065  -50.8077  -19.9075 N   0  0  0  0  0  0  0  0  0  0  0  0
    4.1476  -48.5260  -17.5546 C   0  0  0  0  0  0  0  0  0  0  0  0
    5.0195  -48.0412  -18.6606 C   0  0  0  0  0  0  0  0  0  0  0  0
    6.1416  -48.8916  -18.7204 O   0  0  0  0  0  0  0  0  0  0  0  0
    6.0276  -49.6968  -18.1694 H   0  0  0  0  0  0  0  0  0  0  0  0
    0.0760  -54.3920  -26.3976 S   0  0  0  0  0  0  0  0  0  0  0  0
   -0.0785  -52.9479  -27.4987 C   0  0  0  0  0  0  0  0  0  0  0  0
    1.3103  -52.4151  -27.7447 C   0  0  0  0  0  0  0  0  0  0  0  0
   -0.6271  -53.4128  -28.8337 C   0  0  0  0  0  0  0  0  0  0  0  0
   -0.9854  -51.9595  -26.8315 C   0  0  0  0  0  0  0  0  0  0  0  0
 12 13  1  0  0  0
 13 14  1  0  0  0
 14 15  1  0  0  0
 15 19  1  0  0  0
 19 20  1  0  0  0
 20 21  1  0  0  0
 15 16  1  0  0  0
 16 17  1  0  0  0
 17 18  1  0  0  0
 18  1  1  0  0  0
  1  2  2  0  0  0
  2  3  1  0  0  0
  3  4  1  0  0  0
  4  5  1  0  0  0
  5 23  1  0  0  0
 23 24  1  0  0  0
 24 25  1  0  0  0
 24 26  1  0  0  0
 24 27  1  0  0  0
  5  6  2  0  0  0
  6  7  1  0  0  0
  7  8  1  0  0  0
  8  9  2  0  0  0
  9 10  1  0  0  0
 18 13  1  0  0  0
  9  1  1  0  0  0
  7  3  2  0  0  0
 21 22  1  0  0  0
  4 11  1  0  0  0
M  END
> <minimizedAffinity>
-6.62925

> <CNNscore>
0.5371987820

> <CNNaffinity>
6.5617828369

> <CNN_VS>
3.5249817371

> <CNNaffinity_variance>
0.1817966551

$$$$
[H]OC([H])([H])C([H])([H])N1C([H])([H])C([H])([H])N(c2c(Cl)c([H])c3nc(SC(C([H])([H])[H])(C([H])([H])[H])C([H])([H])[H])n([H])c3c2[H])[C@]([H])(C([H])([H])[H])C1([H])[H]


 27 29  0  0  0  0  0  0  0  0999 V2000
    0.4714  -52.5983  -22.9508 C   0  0  0  0  0  0  0  0  0  0  0  0
    0.7956  -51.6155  -21.9995 C   0  0  0  0  0  0  0  0  0  0  0  0
    0.4212  -51.7153  -20.6813 C   0  0  0  0  0  0  0  0  0  0  0  0
    0.6288  -50.8976  -19.6329 N   0  0  0  0  0  0  0  0  0  0  0  0
    0.0418  -51.4871  -18.5763 C   0  0  0  0  0  0  0  0  0  0  0  0
   -0.5196  -52.6463  -18.9560 N   0  0  0  0  0  0  0  0  0  0  0  0
   -0.3102  -52.8356  -20.2656 C   0  0  0  0  0  0  0  0  0  0  0  0
   -0.6366  -53.8091  -21.1865 C   0  0  0  0  0  0  0  0  0  0  0  0
   -0.2498  -53.6921  -22.5184 C   0  0  0  0  0  0  0  0  0  0  0  0
   -0.7392  -54.9744  -23.6100 Cl  0  0  0  0  0  0  0  0  0  0  0  0
    1.1495  -49.9924  -19.6777 H   0  0  0  0  0  0  0  0  0  0  0  0
   -1.1984  -51.8726  -25.4624 C   0  0  0  0  0  0  0  0  0  0  0  0
    0.2653  -51.8288  -25.3768 C   0  0  0  0  0  0  0  0  0  0  0  0
    0.7643  -52.5564  -26.6321 C   0  0  0  0  0  0  0  0  0  0  0  0
    2.0603  -52.0398  -26.9566 N   0  0  0  0  0  0  0  0  0  0  0  0
    2.8299  -51.9933  -25.7708 C   0  0  0  0  0  0  0  0  0  0  0  0
    2.2358  -52.8947  -24.6564 C   0  0  0  0  0  0  0  0  0  0  0  0
    0.9175  -52.4433  -24.2685 N   0  0  0  0  0  0  0  0  0  0  0  0
    2.5819  -52.7878  -28.0513 C   0  0  0  0  0  0  0  0  0  0  0  0
    1.7186  -53.8812  -28.5783 C   0  0  0  0  0  0  0  0  0  0  0  0
    2.5544  -54.7957  -29.2498 O   0  0  0  0  0  0  0  0  0  0  0  0
    3.5063  -54.6250  -29.0776 H   0  0  0  0  0  0  0  0  0  0  0  0
    0.0328  -50.7991  -16.9318 S   0  0  0  0  0  0  0  0  0  0  0  0
    1.6946  -50.1165  -16.6248 C   0  0  0  0  0  0  0  0  0  0  0  0
    1.9074  -50.0963  -15.1323 C   0  0  0  0  0  0  0  0  0  0  0  0
    2.7234  -51.0611  -17.2151 C   0  0  0  0  0  0  0  0  0  0  0  0
    1.7535  -48.7574  -17.2525 C   0  0  0  0  0  0  0  0  0  0  0  0
 12 13  1  0  0  0
 13 14  1  0  0  0
 14 15  1  0  0  0
 15 19  1  0  0  0
 19 20  1  0  0  0
 20 21  1  0  0  0
 15 16  1  0  0  0
 16 17  1  0  0  0
 17 18  1  0  0  0
 18  1  1  0  0  0
  1  2  2  0  0  0
  2  3  1  0  0  0
  3  4  1  0  0  0
  4  5  1  0  0  0
  5 23  1  0  0  0
 23 24  1  0  0  0
 24 25  1  0  0  0
 24 26  1  0  0  0
 24 27  1  0  0  0
  5  6  2  0  0  0
  6  7  1  0  0  0
  7  8  1  0  0  0
  8  9  2  0  0  0
  9 10  1  0  0  0
 18 13  1  0  0  0
  9  1  1  0  0  0
  7  3  2  0  0  0
 21 22  1  0  0  0
  4 11  1  0  0  0
M  END
> <minimizedAffinity>
-6.81810

> <CNNscore>
0.2812575996

> <CNNaffinity>
6.5663805008

> <CNN_VS>
1.8468444347

> <CNNaffinity_variance>
0.0261313114

$$$$
[H]OC([H])([H])C([H])([H])N1C([H])([H])C([H])([H])N(c2c(Cl)c([H])c3nc(SC(C([H])([H])[H])(C([H])([H])[H])C([H])([H])[H])n([H])c3c2[H])[C@]([H])(C([H])([H])[H])C1([H])[H]


 27 29  0  0  0  0  0  0  0  0999 V2000
    1.5223  -51.2398  -20.2955 C   0  0  0  0  0  0  0  0  0  0  0  0
    2.2068  -51.0436  -21.5075 C   0  0  0  0  0  0  0  0  0  0  0  0
    1.9150  -51.7614  -22.6422 C   0  0  0  0  0  0  0  0  0  0  0  0
    2.4442  -51.7249  -23.8789 N   0  0  0  0  0  0  0  0  0  0  0  0
    1.7778  -52.6449  -24.5985 C   0  0  0  0  0  0  0  0  0  0  0  0
    0.8536  -53.2424  -23.8291 N   0  0  0  0  0  0  0  0  0  0  0  0
    0.8988  -52.7247  -22.5943 C   0  0  0  0  0  0  0  0  0  0  0  0
    0.2174  -52.9297  -21.4128 C   0  0  0  0  0  0  0  0  0  0  0  0
    0.5262  -52.1941  -20.2722 C   0  0  0  0  0  0  0  0  0  0  0  0
   -0.3847  -52.5529  -18.8171 Cl  0  0  0  0  0  0  0  0  0  0  0  0
    3.2195  -51.0901  -24.1763 H   0  0  0  0  0  0  0  0  0  0  0  0
    1.7992  -48.1526  -20.1730 C   0  0  0  0  0  0  0  0  0  0  0  0
    1.6999  -49.0408  -19.0099 C   0  0  0  0  0  0  0  0  0  0  0  0
    2.8276  -48.5990  -18.0681 C   0  0  0  0  0  0  0  0  0  0  0  0
    2.4420  -48.9330  -16.7296 N   0  0  0  0  0  0  0  0  0  0  0  0
    1.9497  -50.2591  -16.7267 C   0  0  0  0  0  0  0  0  0  0  0  0
    2.3906  -51.0456  -17.9894 C   0  0  0  0  0  0  0  0  0  0  0  0
    1.8530  -50.4462  -19.1910 N   0  0  0  0  0  0  0  0  0  0  0  0
    3.5295  -48.6324  -15.8595 C   0  0  0  0  0  0  0  0  0  0  0  0
    3.3764  -49.0508  -14.4383 C   0  0  0  0  0  0  0  0  0  0  0  0
    4.6650  -49.3133  -13.9319 O   0  0  0  0  0  0  0  0  0  0  0  0
    5.3729  -49.0012  -14.5371 H   0  0  0  0  0  0  0  0  0  0  0  0
    2.1032  -52.9899  -26.3169 S   0  0  0  0  0  0  0  0  0  0  0  0
    0.4903  -53.2080  -27.1371 C   0  0  0  0  0  0  0  0  0  0  0  0
   -0.0463  -54.5569  -26.7299 C   0  0  0  0  0  0  0  0  0  0  0  0
   -0.4692  -52.1609  -26.6058 C   0  0  0  0  0  0  0  0  0  0  0  0
    0.7067  -53.0750  -28.6136 C   0  0  0  0  0  0  0  0  0  0  0  0
 12 13  1  0  0  0
 13 14  1  0  0  0
 14 15  1  0  0  0
 15 19  1  0  0  0
 19 20  1  0  0  0
 20 21  1  0  0  0
 15 16  1  0  0  0
 16 17  1  0  0  0
 17 18  1  0  0  0
 18  1  1  0  0  0
  1  2  2  0  0  0
  2  3  1  0  0  0
  3  4  1  0  0  0
  4  5  1  0  0  0
  5 23  1  0  0  0
 23 24  1  0  0  0
 24 25  1  0  0  0
 24 26  1  0  0  0
 24 27  1  0  0  0
  5  6  2  0  0  0
  6  7  1  0  0  0
  7  8  1  0  0  0
  8  9  2  0  0  0
  9 10  1  0  0  0
 18 13  1  0  0  0
  9  1  1  0  0  0
  7  3  2  0  0  0
 21 22  1  0  0  0
  4 11  1  0  0  0
M  END
> <minimizedAffinity>
-6.01567

> <CNNscore>
0.2431902736

> <CNNaffinity>
6.0979981422

> <CNN_VS>
1.4829738140

> <CNNaffinity_variance>
0.2050978243

$$$$
[H]OC([H])([H])C([H])([H])N1C([H])([H])C([H])([H])N(c2c(Cl)c([H])c3nc(SC(C([H])([H])[H])(C([H])([H])[H])C([H])([H])[H])n([H])c3c2[H])[C@]([H])(C([H])([H])[H])C1([H])[H]


 27 29  0  0  0  0  0  0  0  0999 V2000
    0.0813  -52.1515  -21.7994 C   0  0  0  0  0  0  0  0  0  0  0  0
   -0.5380  -52.7758  -20.7026 C   0  0  0  0  0  0  0  0  0  0  0  0
   -0.3559  -52.3444  -19.4109 C   0  0  0  0  0  0  0  0  0  0  0  0
   -0.8494  -52.7971  -18.2437 N   0  0  0  0  0  0  0  0  0  0  0  0
   -0.3413  -51.9992  -17.2878 C   0  0  0  0  0  0  0  0  0  0  0  0
    0.4515  -51.0697  -17.8451 N   0  0  0  0  0  0  0  0  0  0  0  0
    0.4759  -51.2424  -19.1734 C   0  0  0  0  0  0  0  0  0  0  0  0
    1.0912  -50.6184  -20.2384 C   0  0  0  0  0  0  0  0  0  0  0  0
    0.8964  -51.0687  -21.5410 C   0  0  0  0  0  0  0  0  0  0  0  0
    1.7465  -50.2186  -22.8178 Cl  0  0  0  0  0  0  0  0  0  0  0  0
   -1.4971  -53.6118  -18.1470 H   0  0  0  0  0  0  0  0  0  0  0  0
   -1.0899  -54.9033  -22.6229 C   0  0  0  0  0  0  0  0  0  0  0  0
   -0.9789  -53.7333  -23.5005 C   0  0  0  0  0  0  0  0  0  0  0  0
   -0.3550  -54.2613  -24.7990 C   0  0  0  0  0  0  0  0  0  0  0  0
   -0.7751  -53.4080  -25.8701 N   0  0  0  0  0  0  0  0  0  0  0  0
   -0.6085  -52.0647  -25.4596 C   0  0  0  0  0  0  0  0  0  0  0  0
    0.3521  -51.9420  -24.2473 C   0  0  0  0  0  0  0  0  0  0  0  0
   -0.1796  -52.6271  -23.0896 N   0  0  0  0  0  0  0  0  0  0  0  0
   -0.1102  -53.8199  -27.0610 C   0  0  0  0  0  0  0  0  0  0  0  0
   -0.1880  -52.8876  -28.2199 C   0  0  0  0  0  0  0  0  0  0  0  0
    1.0788  -52.8705  -28.8368 O   0  0  0  0  0  0  0  0  0  0  0  0
    1.6652  -53.5837  -28.5016 H   0  0  0  0  0  0  0  0  0  0  0  0
   -0.6926  -52.1818  -15.5497 S   0  0  0  0  0  0  0  0  0  0  0  0
   -1.8269  -50.8329  -15.0852 C   0  0  0  0  0  0  0  0  0  0  0  0
   -1.3283  -49.5735  -15.7473 C   0  0  0  0  0  0  0  0  0  0  0  0
   -3.1978  -51.1330  -15.6594 C   0  0  0  0  0  0  0  0  0  0  0  0
   -1.8496  -50.7497  -13.5895 C   0  0  0  0  0  0  0  0  0  0  0  0
 12 13  1  0  0  0
 13 14  1  0  0  0
 14 15  1  0  0  0
 15 19  1  0  0  0
 19 20  1  0  0  0
 20 21  1  0  0  0
 15 16  1  0  0  0
 16 17  1  0  0  0
 17 18  1  0  0  0
 18  1  1  0  0  0
  1  2  2  0  0  0
  2  3  1  0  0  0
  3  4  1  0  0  0
  4  5  1  0  0  0
  5 23  1  0  0  0
 23 24  1  0  0  0
 24 25  1  0  0  0
 24 26  1  0  0  0
 24 27  1  0  0  0
  5  6  2  0  0  0
  6  7  1  0  0  0
  7  8  1  0  0  0
  8  9  2  0  0  0
  9 10  1  0  0  0
 18 13  1  0  0  0
  9  1  1  0  0  0
  7  3  2  0  0  0
 21 22  1  0  0  0
  4 11  1  0  0  0
M  END
> <minimizedAffinity>
-7.21784

> <CNNscore>
0.2330516875

> <CNNaffinity>
6.2886066437

> <CNN_VS>
1.4655703306

> <CNNaffinity_variance>
0.0626992211

$$$$
[H]OC([H])([H])C([H])([H])N1C([H])([H])C([H])([H])N(c2c(Cl)c([H])c3nc(SC(C([H])([H])[H])(C([H])([H])[H])C([H])([H])[H])n([H])c3c2[H])[C@]([H])(C([H])([H])[H])C1([H])[H]


 27 29  0  0  0  0  0  0  0  0999 V2000
    0.6428  -52.5862  -22.4276 C   0  0  0  0  0  0  0  0  0  0  0  0
    1.1145  -51.4328  -21.7771 C   0  0  0  0  0  0  0  0  0  0  0  0
    0.8712  -51.1861  -20.4476 C   0  0  0  0  0  0  0  0  0  0  0  0
    1.2281  -50.1603  -19.6531 N   0  0  0  0  0  0  0  0  0  0  0  0
    0.7207  -50.4337  -18.4380 C   0  0  0  0  0  0  0  0  0  0  0  0
    0.0620  -51.6033  -18.4728 N   0  0  0  0  0  0  0  0  0  0  0  0
    0.1266  -52.1151  -19.7092 C   0  0  0  0  0  0  0  0  0  0  0  0
   -0.3437  -53.2522  -20.3323 C   0  0  0  0  0  0  0  0  0  0  0  0
   -0.0885  -53.4864  -21.6804 C   0  0  0  0  0  0  0  0  0  0  0  0
   -0.7548  -54.9507  -22.3788 Cl  0  0  0  0  0  0  0  0  0  0  0  0
    1.7895  -49.3347  -19.9625 H   0  0  0  0  0  0  0  0  0  0  0  0
    3.4413  -52.5165  -23.7640 C   0  0  0  0  0  0  0  0  0  0  0  0
    2.2237  -53.0588  -24.3763 C   0  0  0  0  0  0  0  0  0  0  0  0
    2.1762  -52.4519  -25.7847 C   0  0  0  0  0  0  0  0  0  0  0  0
    1.4473  -53.3508  -26.6289 N   0  0  0  0  0  0  0  0  0  0  0  0
    0.2700  -53.7424  -25.9497 C   0  0  0  0  0  0  0  0  0  0  0  0
   -0.0769  -52.7784  -24.7844 C   0  0  0  0  0  0  0  0  0  0  0  0
    0.9603  -52.7849  -23.7762 N   0  0  0  0  0  0  0  0  0  0  0  0
    1.2979  -52.7443  -27.9095 C   0  0  0  0  0  0  0  0  0  0  0  0
    0.0723  -53.1052  -28.6749 C   0  0  0  0  0  0  0  0  0  0  0  0
    0.2850  -52.7327  -30.0172 O   0  0  0  0  0  0  0  0  0  0  0  0
    1.2219  -52.4956  -30.1932 H   0  0  0  0  0  0  0  0  0  0  0  0
    0.9160  -49.3746  -17.0175 S   0  0  0  0  0  0  0  0  0  0  0  0
    2.1391  -50.1645  -15.9212 C   0  0  0  0  0  0  0  0  0  0  0  0
    3.1941  -50.7917  -16.7968 C   0  0  0  0  0  0  0  0  0  0  0  0
    2.8177  -49.0879  -15.0967 C   0  0  0  0  0  0  0  0  0  0  0  0
    1.4119  -51.1547  -15.0638 C   0  0  0  0  0  0  0  0  0  0  0  0
 12 13  1  0  0  0
 13 14  1  0  0  0
 14 15  1  0  0  0
 15 19  1  0  0  0
 19 20  1  0  0  0
 20 21  1  0  0  0
 15 16  1  0  0  0
 16 17  1  0  0  0
 17 18  1  0  0  0
 18  1  1  0  0  0
  1  2  2  0  0  0
  2  3  1  0  0  0
  3  4  1  0  0  0
  4  5  1  0  0  0
  5 23  1  0  0  0
 23 24  1  0  0  0
 24 25  1  0  0  0
 24 26  1  0  0  0
 24 27  1  0  0  0
  5  6  2  0  0  0
  6  7  1  0  0  0
  7  8  1  0  0  0
  8  9  2  0  0  0
  9 10  1  0  0  0
 18 13  1  0  0  0
  9  1  1  0  0  0
  7  3  2  0  0  0
 21 22  1  0  0  0
  4 11  1  0  0  0
M  END
> <minimizedAffinity>
-7.11392

> <CNNscore>
0.2070585042

> <CNNaffinity>
6.4760503769

> <CNN_VS>
1.3409212828

> <CNNaffinity_variance>
0.0203363188

$$$$
[H]OC([H])([H])C([H])([H])N1C([H])([H])C([H])([H])N(c2c(Cl)c([H])c3nc(SC(C([H])([H])[H])(C([H])([H])[H])C([H])([H])[H])n([H])c3c2[H])[C@]([H])(C([H])([H])[H])C1([H])[H]


 27 29  0  0  0  0  0  0  0  0999 V2000
    2.3767  -50.4200  -20.8080 C   0  0  0  0  0  0  0  0  0  0  0  0
    2.6660  -51.1774  -21.9564 C   0  0  0  0  0  0  0  0  0  0  0  0
    1.6942  -51.8450  -22.6618 C   0  0  0  0  0  0  0  0  0  0  0  0
    1.7638  -52.6105  -23.7664 N   0  0  0  0  0  0  0  0  0  0  0  0
    0.5064  -53.0122  -24.0234 C   0  0  0  0  0  0  0  0  0  0  0  0
   -0.3294  -52.5093  -23.1005 N   0  0  0  0  0  0  0  0  0  0  0  0
    0.3652  -51.7708  -22.2248 C   0  0  0  0  0  0  0  0  0  0  0  0
    0.0642  -51.0318  -21.0997 C   0  0  0  0  0  0  0  0  0  0  0  0
    1.0611  -50.3620  -20.3963 C   0  0  0  0  0  0  0  0  0  0  0  0
    0.5724  -49.4729  -18.9658 Cl  0  0  0  0  0  0  0  0  0  0  0  0
    2.6437  -52.8236  -24.2887 H   0  0  0  0  0  0  0  0  0  0  0  0
    3.4870  -50.8940  -17.9506 C   0  0  0  0  0  0  0  0  0  0  0  0
    4.1491  -50.1075  -18.9968 C   0  0  0  0  0  0  0  0  0  0  0  0
    4.5649  -48.7979  -18.3141 C   0  0  0  0  0  0  0  0  0  0  0  0
    5.7032  -48.2781  -19.0111 N   0  0  0  0  0  0  0  0  0  0  0  0
    5.4406  -48.3401  -20.3996 C   0  0  0  0  0  0  0  0  0  0  0  0
    3.9263  -48.4974  -20.6985 C   0  0  0  0  0  0  0  0  0  0  0  0
    3.4154  -49.7398  -20.1620 N   0  0  0  0  0  0  0  0  0  0  0  0
    6.0270  -47.0054  -18.4584 C   0  0  0  0  0  0  0  0  0  0  0  0
    5.4678  -46.7064  -17.1106 C   0  0  0  0  0  0  0  0  0  0  0  0
    6.5183  -46.8267  -16.1790 O   0  0  0  0  0  0  0  0  0  0  0  0
    7.3957  -46.8963  -16.6151 H   0  0  0  0  0  0  0  0  0  0  0  0
    0.0572  -54.0571  -25.3960 S   0  0  0  0  0  0  0  0  0  0  0  0
   -0.1925  -52.9725  -26.8392 C   0  0  0  0  0  0  0  0  0  0  0  0
    0.9918  -52.0428  -26.9176 C   0  0  0  0  0  0  0  0  0  0  0  0
   -0.1819  -53.8245  -28.0935 C   0  0  0  0  0  0  0  0  0  0  0  0
   -1.4972  -52.2595  -26.6547 C   0  0  0  0  0  0  0  0  0  0  0  0
 12 13  1  0  0  0
 13 14  1  0  0  0
 14 15  1  0  0  0
 15 19  1  0  0  0
 19 20  1  0  0  0
 20 21  1  0  0  0
 15 16  1  0  0  0
 16 17  1  0  0  0
 17 18  1  0  0  0
 18  1  1  0  0  0
  1  2  2  0  0  0
  2  3  1  0  0  0
  3  4  1  0  0  0
  4  5  1  0  0  0
  5 23  1  0  0  0
 23 24  1  0  0  0
 24 25  1  0  0  0
 24 26  1  0  0  0
 24 27  1  0  0  0
  5  6  2  0  0  0
  6  7  1  0  0  0
  7  8  1  0  0  0
  8  9  2  0  0  0
  9 10  1  0  0  0
 18 13  1  0  0  0
  9  1  1  0  0  0
  7  3  2  0  0  0
 21 22  1  0  0  0
  4 11  1  0  0  0
M  END
> <minimizedAffinity>
-5.54655

> <CNNscore>
0.1625103354

> <CNNaffinity>
5.9348015785

> <CNN_VS>
0.9644665718

> <CNNaffinity_variance>
0.2128436267

$$$$
[H]OC([H])([H])C([H])([H])N1C([H])([H])C([H])([H])N(c2c(Cl)c([H])c3nc(SC(C([H])([H])[H])(C([H])([H])[H])C([H])([H])[H])n([H])c3c2[H])[C@]([H])(C([H])([H])[H])C1([H])[H]


 27 29  0  0  0  0  0  0  0  0999 V2000
    0.2463  -52.3821  -22.3432 C   0  0  0  0  0  0  0  0  0  0  0  0
    1.4959  -51.7836  -22.1061 C   0  0  0  0  0  0  0  0  0  0  0  0
    1.8948  -51.3837  -20.8536 C   0  0  0  0  0  0  0  0  0  0  0  0
    3.0298  -50.8020  -20.4246 N   0  0  0  0  0  0  0  0  0  0  0  0
    2.8851  -50.6315  -19.0985 C   0  0  0  0  0  0  0  0  0  0  0  0
    1.6872  -51.0959  -18.7082 N   0  0  0  0  0  0  0  0  0  0  0  0
    1.0279  -51.5779  -19.7702 C   0  0  0  0  0  0  0  0  0  0  0  0
   -0.2020  -52.1638  -19.9856 C   0  0  0  0  0  0  0  0  0  0  0  0
   -0.5906  -52.5625  -21.2612 C   0  0  0  0  0  0  0  0  0  0  0  0
   -2.1852  -53.2735  -21.4269 Cl  0  0  0  0  0  0  0  0  0  0  0  0
    3.8384  -50.5504  -21.0373 H   0  0  0  0  0  0  0  0  0  0  0  0
   -0.5644  -55.2180  -23.3039 C   0  0  0  0  0  0  0  0  0  0  0  0
   -0.7326  -53.9821  -24.0757 C   0  0  0  0  0  0  0  0  0  0  0  0
   -0.1785  -54.2996  -25.4708 C   0  0  0  0  0  0  0  0  0  0  0  0
   -0.8399  -53.4477  -26.4134 N   0  0  0  0  0  0  0  0  0  0  0  0
   -0.8410  -52.1306  -25.8977 C   0  0  0  0  0  0  0  0  0  0  0  0
    0.2144  -51.9447  -24.7757 C   0  0  0  0  0  0  0  0  0  0  0  0
   -0.0755  -52.7942  -23.6415 N   0  0  0  0  0  0  0  0  0  0  0  0
   -0.2520  -53.6526  -27.6951 C   0  0  0  0  0  0  0  0  0  0  0  0
   -0.6890  -52.7303  -28.7798 C   0  0  0  0  0  0  0  0  0  0  0  0
    0.3408  -52.6870  -29.7407 O   0  0  0  0  0  0  0  0  0  0  0  0
    1.0173  -53.3836  -29.5923 H   0  0  0  0  0  0  0  0  0  0  0  0
    4.1237  -49.8940  -18.0498 S   0  0  0  0  0  0  0  0  0  0  0  0
    4.2871  -48.1502  -18.5539 C   0  0  0  0  0  0  0  0  0  0  0  0
    2.9689  -47.7253  -19.1495 C   0  0  0  0  0  0  0  0  0  0  0  0
    4.5159  -47.3068  -17.3147 C   0  0  0  0  0  0  0  0  0  0  0  0
    5.4319  -48.0581  -19.5160 C   0  0  0  0  0  0  0  0  0  0  0  0
 12 13  1  0  0  0
 13 14  1  0  0  0
 14 15  1  0  0  0
 15 19  1  0  0  0
 19 20  1  0  0  0
 20 21  1  0  0  0
 15 16  1  0  0  0
 16 17  1  0  0  0
 17 18  1  0  0  0
 18  1  1  0  0  0
  1  2  2  0  0  0
  2  3  1  0  0  0
  3  4  1  0  0  0
  4  5  1  0  0  0
  5 23  1  0  0  0
 23 24  1  0  0  0
 24 25  1  0  0  0
 24 26  1  0  0  0
 24 27  1  0  0  0
  5  6  2  0  0  0
  6  7  1  0  0  0
  7  8  1  0  0  0
  8  9  2  0  0  0
  9 10  1  0  0  0
 18 13  1  0  0  0
  9  1  1  0  0  0
  7  3  2  0  0  0
 21 22  1  0  0  0
  4 11  1  0  0  0
M  END
> <minimizedAffinity>
-6.46856

> <CNNscore>
0.1342076063

> <CNNaffinity>
6.2291603088

> <CNN_VS>
0.8360006809

> <CNNaffinity_variance>
0.0646599159

$$$$
[H]OC([H])([H])C([H])([H])N1C([H])([H])C([H])([H])N(c2c(Cl)c([H])c3nc(SC(C([H])([H])[H])(C([H])([H])[H])C([H])([H])[H])n([H])c3c2[H])[C@]([H])(C([H])([H])[H])C1([H])[H]


 27 29  0  0  0  0  0  0  0  0999 V2000
    0.9872  -51.4925  -19.9949 C   0  0  0  0  0  0  0  0  0  0  0  0
   -0.0246  -51.8613  -20.8985 C   0  0  0  0  0  0  0  0  0  0  0  0
    0.2506  -52.3311  -22.1600 C   0  0  0  0  0  0  0  0  0  0  0  0
   -0.5599  -52.7298  -23.1574 N   0  0  0  0  0  0  0  0  0  0  0  0
    0.2452  -53.0924  -24.1718 C   0  0  0  0  0  0  0  0  0  0  0  0
    1.5291  -52.9239  -23.8161 N   0  0  0  0  0  0  0  0  0  0  0  0
    1.5867  -52.4489  -22.5647 C   0  0  0  0  0  0  0  0  0  0  0  0
    2.5915  -52.0914  -21.6903 C   0  0  0  0  0  0  0  0  0  0  0  0
    2.2952  -51.6166  -20.4159 C   0  0  0  0  0  0  0  0  0  0  0  0
    3.6479  -51.1667  -19.3944 Cl  0  0  0  0  0  0  0  0  0  0  0  0
   -1.6040  -52.7390  -23.1088 H   0  0  0  0  0  0  0  0  0  0  0  0
    1.5835  -48.7490  -18.6759 C   0  0  0  0  0  0  0  0  0  0  0  0
    0.6125  -49.7321  -18.1838 C   0  0  0  0  0  0  0  0  0  0  0  0
    0.8976  -49.8632  -16.6819 C   0  0  0  0  0  0  0  0  0  0  0  0
   -0.3156  -50.2655  -16.0352 N   0  0  0  0  0  0  0  0  0  0  0  0
   -0.8843  -51.3265  -16.7777 C   0  0  0  0  0  0  0  0  0  0  0  0
    0.1488  -51.9930  -17.7242 C   0  0  0  0  0  0  0  0  0  0  0  0
    0.6296  -51.0547  -18.7145 N   0  0  0  0  0  0  0  0  0  0  0  0
   -0.0348  -50.5016  -14.6584 C   0  0  0  0  0  0  0  0  0  0  0  0
   -0.7570  -51.6371  -14.0200 C   0  0  0  0  0  0  0  0  0  0  0  0
    0.1427  -52.7184  -13.9353 O   0  0  0  0  0  0  0  0  0  0  0  0
    1.0663  -52.4501  -14.1350 H   0  0  0  0  0  0  0  0  0  0  0  0
   -0.3439  -53.7015  -25.7401 S   0  0  0  0  0  0  0  0  0  0  0  0
   -0.7924  -52.2502  -26.7472 C   0  0  0  0  0  0  0  0  0  0  0  0
   -0.4479  -52.5690  -28.1800 C   0  0  0  0  0  0  0  0  0  0  0  0
   -2.2946  -52.0563  -26.6761 C   0  0  0  0  0  0  0  0  0  0  0  0
   -0.0467  -51.0694  -26.2047 C   0  0  0  0  0  0  0  0  0  0  0  0
 12 13  1  0  0  0
 13 14  1  0  0  0
 14 15  1  0  0  0
 15 19  1  0  0  0
 19 20  1  0  0  0
 20 21  1  0  0  0
 15 16  1  0  0  0
 16 17  1  0  0  0
 17 18  1  0  0  0
 18  1  1  0  0  0
  1  2  2  0  0  0
  2  3  1  0  0  0
  3  4  1  0  0  0
  4  5  1  0  0  0
  5 23  1  0  0  0
 23 24  1  0  0  0
 24 25  1  0  0  0
 24 26  1  0  0  0
 24 27  1  0  0  0
  5  6  2  0  0  0
  6  7  1  0  0  0
  7  8  1  0  0  0
  8  9  2  0  0  0
  9 10  1  0  0  0
 18 13  1  0  0  0
  9  1  1  0  0  0
  7  3  2  0  0  0
 21 22  1  0  0  0
  4 11  1  0  0  0
M  END
> <minimizedAffinity>
-5.75838

> <CNNscore>
0.1291112751

> <CNNaffinity>
5.9857816696

> <CNN_VS>
0.7728319168

> <CNNaffinity_variance>
0.2300825864

$$$$
[H]OC([H])([H])C([H])([H])N1C([H])([H])C([H])([H])N(c2c(Cl)c([H])c3nc(SC(C([H])([H])[H])(C([H])([H])[H])C([H])([H])[H])n([H])c3c2[H])[C@]([H])(C([H])([H])[H])C1([H])[H]


 27 29  0  0  0  0  0  0  0  0999 V2000
    0.6976  -51.8140  -20.9165 C   0  0  0  0  0  0  0  0  0  0  0  0
    0.8953  -50.5847  -20.2639 C   0  0  0  0  0  0  0  0  0  0  0  0
    0.5971  -50.4003  -18.9355 C   0  0  0  0  0  0  0  0  0  0  0  0
    0.7110  -49.3214  -18.1394 N   0  0  0  0  0  0  0  0  0  0  0  0
    0.2728  -49.7030  -16.9266 C   0  0  0  0  0  0  0  0  0  0  0  0
   -0.1062  -50.9907  -16.9643 N   0  0  0  0  0  0  0  0  0  0  0  0
    0.0771  -51.4736  -18.2004 C   0  0  0  0  0  0  0  0  0  0  0  0
   -0.1231  -52.6866  -18.8256 C   0  0  0  0  0  0  0  0  0  0  0  0
    0.1840  -52.8562  -20.1725 C   0  0  0  0  0  0  0  0  0  0  0  0
   -0.1333  -54.4321  -20.8739 Cl  0  0  0  0  0  0  0  0  0  0  0  0
    1.0740  -48.3905  -18.4463 H   0  0  0  0  0  0  0  0  0  0  0  0
    3.5058  -51.4588  -22.1855 C   0  0  0  0  0  0  0  0  0  0  0  0
    2.3510  -52.0788  -22.8441 C   0  0  0  0  0  0  0  0  0  0  0  0
    2.2798  -51.4262  -24.2309 C   0  0  0  0  0  0  0  0  0  0  0  0
    1.6470  -52.3513  -25.1227 N   0  0  0  0  0  0  0  0  0  0  0  0
    0.4941  -52.8658  -24.4848 C   0  0  0  0  0  0  0  0  0  0  0  0
    0.0434  -51.9785  -23.2945 C   0  0  0  0  0  0  0  0  0  0  0  0
    1.0573  -51.9349  -22.2637 N   0  0  0  0  0  0  0  0  0  0  0  0
    1.4717  -51.7124  -26.3842 C   0  0  0  0  0  0  0  0  0  0  0  0
    0.7616  -52.4975  -27.4318 C   0  0  0  0  0  0  0  0  0  0  0  0
    1.6000  -52.5515  -28.5632 O   0  0  0  0  0  0  0  0  0  0  0  0
    2.5090  -52.2347  -28.3677 H   0  0  0  0  0  0  0  0  0  0  0  0
    0.2191  -48.6285  -15.5052 S   0  0  0  0  0  0  0  0  0  0  0  0
   -1.4482  -48.7733  -14.7836 C   0  0  0  0  0  0  0  0  0  0  0  0
   -2.2763  -47.6353  -15.3243 C   0  0  0  0  0  0  0  0  0  0  0  0
   -2.0781  -50.0628  -15.2732 C   0  0  0  0  0  0  0  0  0  0  0  0
   -1.3046  -48.7483  -13.2925 C   0  0  0  0  0  0  0  0  0  0  0  0
 12 13  1  0  0  0
 13 14  1  0  0  0
 14 15  1  0  0  0
 15 19  1  0  0  0
 19 20  1  0  0  0
 20 21  1  0  0  0
 15 16  1  0  0  0
 16 17  1  0  0  0
 17 18  1  0  0  0
 18  1  1  0  0  0
  1  2  2  0  0  0
  2  3  1  0  0  0
  3  4  1  0  0  0
  4  5  1  0  0  0
  5 23  1  0  0  0
 23 24  1  0  0  0
 24 25  1  0  0  0
 24 26  1  0  0  0
 24 27  1  0  0  0
  5  6  2  0  0  0
  6  7  1  0  0  0
  7  8  1  0  0  0
  8  9  2  0  0  0
  9 10  1  0  0  0
 18 13  1  0  0  0
  9  1  1  0  0  0
  7  3  2  0  0  0
 21 22  1  0  0  0
  4 11  1  0  0  0
M  END
> <minimizedAffinity>
-6.34939

> <CNNscore>
0.1198854670

> <CNNaffinity>
5.8430943489

> <CNN_VS>
0.7005020976

> <CNNaffinity_variance>
0.0890563726

$$$$
[H]c1nc(N([H])S(=O)(=O)c2c([H])c(Cl)c(N(C([H])([H])[H])[C@]3([H])C([H])([H])N(C([H])([H])c4c([H])c([H])c(Cl)c([H])c4[H])C([H])([H])C3([H])[H])c([H])c2F)c([H])s1


 33 36  0  0  0  0  0  0  0  0999 V2000
    3.4533  -50.5737  -24.0639 C   0  0  0  0  0  0  0  0  0  0  0  0
    2.3749  -50.2976  -24.8769 C   0  0  0  0  0  0  0  0  0  0  0  0
    1.3149  -51.1679  -24.9915 C   0  0  0  0  0  0  0  0  0  0  0  0
    0.2514  -50.8817  -25.8015 F   0  0  0  0  0  0  0  0  0  0  0  0
    1.2761  -52.3764  -24.2899 C   0  0  0  0  0  0  0  0  0  0  0  0
    2.3567  -52.6433  -23.4803 C   0  0  0  0  0  0  0  0  0  0  0  0
    3.4148  -51.7661  -23.3716 C   0  0  0  0  0  0  0  0  0  0  0  0
    4.7867  -52.1475  -22.3191 Cl  0  0  0  0  0  0  0  0  0  0  0  0
   -0.1070  -53.4365  -24.4507 S   0  0  0  0  0  0  0  0  0  0  0  0
   -1.3278  -52.5348  -24.4640 O   0  0  0  0  0  0  0  0  0  0  0  0
   -0.2502  -54.3438  -23.2763 O   0  0  0  0  0  0  0  0  0  0  0  0
   -0.1233  -54.3196  -25.9112 N   0  0  0  0  0  0  0  0  0  0  0  0
    0.0311  -55.3479  -25.8475 H   0  0  0  0  0  0  0  0  0  0  0  0
   -0.3404  -53.6947  -27.2104 C   0  0  0  0  0  0  0  0  0  0  0  0
    0.6495  -53.6882  -28.1669 C   0  0  0  0  0  0  0  0  0  0  0  0
   -0.1146  -52.8559  -29.4457 S   0  0  0  0  0  0  0  0  0  0  0  0
   -1.6237  -52.5689  -28.7026 C   0  0  0  0  0  0  0  0  0  0  0  0
   -1.4624  -53.1253  -27.5156 N   0  0  0  0  0  0  0  0  0  0  0  0
    5.7440  -49.8983  -24.7367 C   0  0  0  0  0  0  0  0  0  0  0  0
    4.5589  -49.7002  -23.9244 N   0  0  0  0  0  0  0  0  0  0  0  0
    4.5444  -48.6166  -22.9977 C   0  0  0  0  0  0  0  0  0  0  0  0
    3.6163  -47.4870  -23.3948 C   0  0  0  0  0  0  0  0  0  0  0  0
    3.4855  -46.7562  -22.0628 C   0  0  0  0  0  0  0  0  0  0  0  0
    3.4411  -47.7891  -21.0776 N   0  0  0  0  0  0  0  0  0  0  0  0
    3.9249  -49.0087  -21.6486 C   0  0  0  0  0  0  0  0  0  0  0  0
    2.1264  -47.8668  -20.5150 C   0  0  0  0  0  0  0  0  0  0  0  0
    1.7566  -49.2924  -20.3401 C   0  0  0  0  0  0  0  0  0  0  0  0
    0.7103  -49.8321  -21.0954 C   0  0  0  0  0  0  0  0  0  0  0  0
    0.3226  -51.1494  -20.9838 C   0  0  0  0  0  0  0  0  0  0  0  0
    0.9724  -51.9844  -20.1051 C   0  0  0  0  0  0  0  0  0  0  0  0
    0.4624  -53.6530  -19.9809 Cl  0  0  0  0  0  0  0  0  0  0  0  0
    2.0022  -51.4932  -19.3477 C   0  0  0  0  0  0  0  0  0  0  0  0
    2.3776  -50.1600  -19.4759 C   0  0  0  0  0  0  0  0  0  0  0  0
 19 20  1  0  0  0
 20  1  1  0  0  0
  1  2  2  0  0  0
  2  3  1  0  0  0
  3  4  1  0  0  0
  3  5  2  0  0  0
  5  9  1  0  0  0
  9 10  2  0  0  0
  9 11  2  0  0  0
  9 12  1  0  0  0
 12 14  1  0  0  0
 14 15  2  0  0  0
 15 16  1  0  0  0
 16 17  1  0  0  0
 17 18  2  0  0  0
  5  6  1  0  0  0
  6  7  2  0  0  0
  7  8  1  0  0  0
 20 21  1  0  0  0
 21 22  1  0  0  0
 22 23  1  0  0  0
 23 24  1  0  0  0
 24 26  1  0  0  0
 26 27  1  0  0  0
 27 28  2  0  0  0
 28 29  1  0  0  0
 29 30  2  0  0  0
 30 31  1  0  0  0
 30 32  1  0  0  0
 32 33  2  0  0  0
 24 25  1  0  0  0
  7  1  1  0  0  0
 25 21  1  0  0  0
 18 14  1  0  0  0
 33 27  1  0  0  0
 12 13  1  0  0  0
M  END
> <minimizedAffinity>
-7.35868

> <CNNscore>
0.4627687037

> <CNNaffinity>
7.2319908142

> <CNN_VS>
3.3467390537

> <CNNaffinity_variance>
0.1794427484

$$$$
[H]c1nc(N([H])S(=O)(=O)c2c([H])c(Cl)c(N(C([H])([H])[H])[C@]3([H])C([H])([H])N(C([H])([H])c4c([H])c([H])c(Cl)c([H])c4[H])C([H])([H])C3([H])[H])c([H])c2F)c([H])s1


 33 36  0  0  0  0  0  0  0  0999 V2000
    3.8009  -49.8037  -21.8278 C   0  0  0  0  0  0  0  0  0  0  0  0
    3.9492  -50.9293  -21.0462 C   0  0  0  0  0  0  0  0  0  0  0  0
    3.1629  -51.1481  -19.9380 C   0  0  0  0  0  0  0  0  0  0  0  0
    3.3204  -52.2690  -19.1713 F   0  0  0  0  0  0  0  0  0  0  0  0
    2.1735  -50.2412  -19.5473 C   0  0  0  0  0  0  0  0  0  0  0  0
    2.0324  -49.1206  -20.3340 C   0  0  0  0  0  0  0  0  0  0  0  0
    2.8245  -48.9090  -21.4424 C   0  0  0  0  0  0  0  0  0  0  0  0
    2.6112  -47.4534  -22.4279 Cl  0  0  0  0  0  0  0  0  0  0  0  0
    1.1831  -50.5785  -18.1445 S   0  0  0  0  0  0  0  0  0  0  0  0
    0.5315  -49.2615  -17.7641 O   0  0  0  0  0  0  0  0  0  0  0  0
    2.0036  -51.0101  -16.9768 O   0  0  0  0  0  0  0  0  0  0  0  0
   -0.0769  -51.6885  -18.4501 N   0  0  0  0  0  0  0  0  0  0  0  0
   -0.7786  -51.8323  -17.6938 H   0  0  0  0  0  0  0  0  0  0  0  0
   -0.1971  -52.4222  -19.7043 C   0  0  0  0  0  0  0  0  0  0  0  0
    0.3072  -53.6969  -19.8296 C   0  0  0  0  0  0  0  0  0  0  0  0
   -0.0949  -54.0674  -21.4461 S   0  0  0  0  0  0  0  0  0  0  0  0
   -0.8681  -52.6042  -21.8624 C   0  0  0  0  0  0  0  0  0  0  0  0
   -0.7775  -51.9103  -20.7423 N   0  0  0  0  0  0  0  0  0  0  0  0
    5.6681  -48.5771  -22.9075 C   0  0  0  0  0  0  0  0  0  0  0  0
    4.5935  -49.5490  -22.9732 N   0  0  0  0  0  0  0  0  0  0  0  0
    4.3657  -50.2269  -24.2068 C   0  0  0  0  0  0  0  0  0  0  0  0
    4.9778  -51.6116  -24.2637 C   0  0  0  0  0  0  0  0  0  0  0  0
    4.2100  -52.2045  -25.4402 C   0  0  0  0  0  0  0  0  0  0  0  0
    2.8799  -51.7026  -25.3039 N   0  0  0  0  0  0  0  0  0  0  0  0
    2.8863  -50.5808  -24.4156 C   0  0  0  0  0  0  0  0  0  0  0  0
    1.9967  -52.7650  -24.9267 C   0  0  0  0  0  0  0  0  0  0  0  0
    0.7670  -52.6904  -25.7524 C   0  0  0  0  0  0  0  0  0  0  0  0
    0.7286  -53.3340  -26.9937 C   0  0  0  0  0  0  0  0  0  0  0  0
   -0.3849  -53.3074  -27.8047 C   0  0  0  0  0  0  0  0  0  0  0  0
   -1.5121  -52.6304  -27.4014 C   0  0  0  0  0  0  0  0  0  0  0  0
   -2.9135  -52.6107  -28.4481 Cl  0  0  0  0  0  0  0  0  0  0  0  0
   -1.5136  -51.9875  -26.1923 C   0  0  0  0  0  0  0  0  0  0  0  0
   -0.3788  -52.0269  -25.3889 C   0  0  0  0  0  0  0  0  0  0  0  0
 19 20  1  0  0  0
 20  1  1  0  0  0
  1  2  2  0  0  0
  2  3  1  0  0  0
  3  4  1  0  0  0
  3  5  2  0  0  0
  5  9  1  0  0  0
  9 10  2  0  0  0
  9 11  2  0  0  0
  9 12  1  0  0  0
 12 14  1  0  0  0
 14 15  2  0  0  0
 15 16  1  0  0  0
 16 17  1  0  0  0
 17 18  2  0  0  0
  5  6  1  0  0  0
  6  7  2  0  0  0
  7  8  1  0  0  0
 20 21  1  0  0  0
 21 22  1  0  0  0
 22 23  1  0  0  0
 23 24  1  0  0  0
 24 26  1  0  0  0
 26 27  1  0  0  0
 27 28  2  0  0  0
 28 29  1  0  0  0
 29 30  2  0  0  0
 30 31  1  0  0  0
 30 32  1  0  0  0
 32 33  2  0  0  0
 24 25  1  0  0  0
  7  1  1  0  0  0
 25 21  1  0  0  0
 18 14  1  0  0  0
 33 27  1  0  0  0
 12 13  1  0  0  0
M  END
> <minimizedAffinity>
-6.91419

> <CNNscore>
0.4486657977

> <CNNaffinity>
7.5505928993

> <CNN_VS>
3.3876926899

> <CNNaffinity_variance>
0.0877952874

$$$$
[H]c1nc(N([H])S(=O)(=O)c2c([H])c(Cl)c(N(C([H])([H])[H])[C@]3([H])C([H])([H])N(C([H])([H])c4c([H])c([H])c(Cl)c([H])c4[H])C([H])([H])C3([H])[H])c([H])c2F)c([H])s1


 33 36  0  0  0  0  0  0  0  0999 V2000
    3.3821  -50.2219  -22.5110 C   0  0  0  0  0  0  0  0  0  0  0  0
    2.2053  -50.1075  -23.2197 C   0  0  0  0  0  0  0  0  0  0  0  0
    2.0114  -50.7706  -24.4101 C   0  0  0  0  0  0  0  0  0  0  0  0
    0.8393  -50.6483  -25.1030 F   0  0  0  0  0  0  0  0  0  0  0  0
    2.9967  -51.5942  -24.9624 C   0  0  0  0  0  0  0  0  0  0  0  0
    4.1679  -51.7028  -24.2475 C   0  0  0  0  0  0  0  0  0  0  0  0
    4.3541  -51.0348  -23.0559 C   0  0  0  0  0  0  0  0  0  0  0  0
    5.8766  -51.2009  -22.1672 Cl  0  0  0  0  0  0  0  0  0  0  0  0
    2.6908  -52.4356  -26.4660 S   0  0  0  0  0  0  0  0  0  0  0  0
    3.8486  -53.3995  -26.6509 O   0  0  0  0  0  0  0  0  0  0  0  0
    2.7069  -51.5087  -27.6338 O   0  0  0  0  0  0  0  0  0  0  0  0
    1.2624  -53.3697  -26.4465 N   0  0  0  0  0  0  0  0  0  0  0  0
    1.2243  -54.1673  -25.7776 H   0  0  0  0  0  0  0  0  0  0  0  0
    0.1248  -53.0926  -27.3152 C   0  0  0  0  0  0  0  0  0  0  0  0
   -1.0586  -52.6137  -26.8005 C   0  0  0  0  0  0  0  0  0  0  0  0
   -2.0128  -52.4725  -28.2083 S   0  0  0  0  0  0  0  0  0  0  0  0
   -0.8707  -53.0217  -29.3512 C   0  0  0  0  0  0  0  0  0  0  0  0
    0.1798  -53.2836  -28.5946 N   0  0  0  0  0  0  0  0  0  0  0  0
    4.1825  -48.2193  -21.2842 C   0  0  0  0  0  0  0  0  0  0  0  0
    3.6130  -49.5532  -21.2845 N   0  0  0  0  0  0  0  0  0  0  0  0
    3.2992  -50.1577  -20.0318 C   0  0  0  0  0  0  0  0  0  0  0  0
    2.4825  -49.2708  -19.1144 C   0  0  0  0  0  0  0  0  0  0  0  0
    1.9550  -50.3065  -18.1273 C   0  0  0  0  0  0  0  0  0  0  0  0
    1.6697  -51.4601  -18.9194 N   0  0  0  0  0  0  0  0  0  0  0  0
    2.3375  -51.3454  -20.1798 C   0  0  0  0  0  0  0  0  0  0  0  0
    0.2531  -51.6530  -19.0033 C   0  0  0  0  0  0  0  0  0  0  0  0
   -0.0623  -52.4030  -20.2432 C   0  0  0  0  0  0  0  0  0  0  0  0
    0.0186  -53.7994  -20.2450 C   0  0  0  0  0  0  0  0  0  0  0  0
   -0.2672  -54.5538  -21.3619 C   0  0  0  0  0  0  0  0  0  0  0  0
   -0.6482  -53.9349  -22.5295 C   0  0  0  0  0  0  0  0  0  0  0  0
   -1.0060  -54.9137  -23.9344 Cl  0  0  0  0  0  0  0  0  0  0  0  0
   -0.7391  -52.5690  -22.5676 C   0  0  0  0  0  0  0  0  0  0  0  0
   -0.4462  -51.8263  -21.4286 C   0  0  0  0  0  0  0  0  0  0  0  0
 19 20  1  0  0  0
 20  1  1  0  0  0
  1  2  2  0  0  0
  2  3  1  0  0  0
  3  4  1  0  0  0
  3  5  2  0  0  0
  5  9  1  0  0  0
  9 10  2  0  0  0
  9 11  2  0  0  0
  9 12  1  0  0  0
 12 14  1  0  0  0
 14 15  2  0  0  0
 15 16  1  0  0  0
 16 17  1  0  0  0
 17 18  2  0  0  0
  5  6  1  0  0  0
  6  7  2  0  0  0
  7  8  1  0  0  0
 20 21  1  0  0  0
 21 22  1  0  0  0
 22 23  1  0  0  0
 23 24  1  0  0  0
 24 26  1  0  0  0
 26 27  1  0  0  0
 27 28  2  0  0  0
 28 29  1  0  0  0
 29 30  2  0  0  0
 30 31  1  0  0  0
 30 32  1  0  0  0
 32 33  2  0  0  0
 24 25  1  0  0  0
  7  1  1  0  0  0
 25 21  1  0  0  0
 18 14  1  0  0  0
 33 27  1  0  0  0
 12 13  1  0  0  0
M  END
> <minimizedAffinity>
-8.18074

> <CNNscore>
0.3653531373

> <CNNaffinity>
7.2307119370

> <CNN_VS>
2.6417632103

> <CNNaffinity_variance>
0.3956474364

$$$$
[H]c1nc(N([H])S(=O)(=O)c2c([H])c(Cl)c(N(C([H])([H])[H])[C@]3([H])C([H])([H])N(C([H])([H])c4c([H])c([H])c(Cl)c([H])c4[H])C([H])([H])C3([H])[H])c([H])c2F)c([H])s1


 33 36  0  0  0  0  0  0  0  0999 V2000
    3.8764  -50.6280  -21.9823 C   0  0  0  0  0  0  0  0  0  0  0  0
    4.5281  -51.7443  -22.4612 C   0  0  0  0  0  0  0  0  0  0  0  0
    4.1440  -52.3585  -23.6315 C   0  0  0  0  0  0  0  0  0  0  0  0
    4.7991  -53.4652  -24.0953 F   0  0  0  0  0  0  0  0  0  0  0  0
    3.0740  -51.8831  -24.3951 C   0  0  0  0  0  0  0  0  0  0  0  0
    2.4299  -50.7679  -23.9094 C   0  0  0  0  0  0  0  0  0  0  0  0
    2.8208  -50.1588  -22.7360 C   0  0  0  0  0  0  0  0  0  0  0  0
    1.9647  -48.7259  -22.1450 Cl  0  0  0  0  0  0  0  0  0  0  0  0
    2.6418  -52.6853  -25.8892 S   0  0  0  0  0  0  0  0  0  0  0  0
    1.8409  -53.9115  -25.4908 O   0  0  0  0  0  0  0  0  0  0  0  0
    3.8434  -53.1720  -26.6255 O   0  0  0  0  0  0  0  0  0  0  0  0
    1.6423  -51.7448  -26.9039 N   0  0  0  0  0  0  0  0  0  0  0  0
    2.0913  -50.9571  -27.4169 H   0  0  0  0  0  0  0  0  0  0  0  0
    0.2170  -52.0034  -27.0693 C   0  0  0  0  0  0  0  0  0  0  0  0
   -0.2740  -52.5396  -28.2381 C   0  0  0  0  0  0  0  0  0  0  0  0
   -1.9442  -52.6287  -27.8995 S   0  0  0  0  0  0  0  0  0  0  0  0
   -1.9221  -51.9894  -26.3175 C   0  0  0  0  0  0  0  0  0  0  0  0
   -0.6378  -51.7420  -26.1327 N   0  0  0  0  0  0  0  0  0  0  0  0
    5.1834  -48.8671  -20.8215 C   0  0  0  0  0  0  0  0  0  0  0  0
    4.2462  -49.9733  -20.7824 N   0  0  0  0  0  0  0  0  0  0  0  0
    3.7192  -50.3724  -19.5190 C   0  0  0  0  0  0  0  0  0  0  0  0
    2.9685  -49.2725  -18.7966 C   0  0  0  0  0  0  0  0  0  0  0  0
    2.1889  -50.0950  -17.7762 C   0  0  0  0  0  0  0  0  0  0  0  0
    1.8023  -51.2794  -18.4742 N   0  0  0  0  0  0  0  0  0  0  0  0
    2.5998  -51.4144  -19.6546 C   0  0  0  0  0  0  0  0  0  0  0  0
    0.3882  -51.2699  -18.7000 C   0  0  0  0  0  0  0  0  0  0  0  0
    0.0788  -52.1167  -19.8775 C   0  0  0  0  0  0  0  0  0  0  0  0
   -0.2287  -51.5125  -21.1010 C   0  0  0  0  0  0  0  0  0  0  0  0
   -0.5189  -52.2429  -22.2326 C   0  0  0  0  0  0  0  0  0  0  0  0
   -0.5126  -53.6173  -22.1831 C   0  0  0  0  0  0  0  0  0  0  0  0
   -0.8844  -54.5231  -23.6327 Cl  0  0  0  0  0  0  0  0  0  0  0  0
   -0.2164  -54.2461  -21.0033 C   0  0  0  0  0  0  0  0  0  0  0  0
    0.0739  -53.4898  -19.8726 C   0  0  0  0  0  0  0  0  0  0  0  0
 19 20  1  0  0  0
 20  1  1  0  0  0
  1  2  2  0  0  0
  2  3  1  0  0  0
  3  4  1  0  0  0
  3  5  2  0  0  0
  5  9  1  0  0  0
  9 10  2  0  0  0
  9 11  2  0  0  0
  9 12  1  0  0  0
 12 14  1  0  0  0
 14 15  2  0  0  0
 15 16  1  0  0  0
 16 17  1  0  0  0
 17 18  2  0  0  0
  5  6  1  0  0  0
  6  7  2  0  0  0
  7  8  1  0  0  0
 20 21  1  0  0  0
 21 22  1  0  0  0
 22 23  1  0  0  0
 23 24  1  0  0  0
 24 26  1  0  0  0
 26 27  1  0  0  0
 27 28  2  0  0  0
 28 29  1  0  0  0
 29 30  2  0  0  0
 30 31  1  0  0  0
 30 32  1  0  0  0
 32 33  2  0  0  0
 24 25  1  0  0  0
  7  1  1  0  0  0
 25 21  1  0  0  0
 18 14  1  0  0  0
 33 27  1  0  0  0
 12 13  1  0  0  0
M  END
> <minimizedAffinity>
-7.79858

> <CNNscore>
0.3224246800

> <CNNaffinity>
6.9404764175

> <CNN_VS>
2.2377808094

> <CNNaffinity_variance>
0.5561159253

$$$$
[H]c1nc(N([H])S(=O)(=O)c2c([H])c(Cl)c(N(C([H])([H])[H])[C@]3([H])C([H])([H])N(C([H])([H])c4c([H])c([H])c(Cl)c([H])c4[H])C([H])([H])C3([H])[H])c([H])c2F)c([H])s1


 33 36  0  0  0  0  0  0  0  0999 V2000
    1.9964  -51.2963  -23.9038 C   0  0  0  0  0  0  0  0  0  0  0  0
    1.4740  -50.6605  -22.7980 C   0  0  0  0  0  0  0  0  0  0  0  0
    0.5903  -51.2913  -21.9521 C   0  0  0  0  0  0  0  0  0  0  0  0
    0.0796  -50.6490  -20.8586 F   0  0  0  0  0  0  0  0  0  0  0  0
    0.1766  -52.6087  -22.1697 C   0  0  0  0  0  0  0  0  0  0  0  0
    0.7038  -53.2356  -23.2759 C   0  0  0  0  0  0  0  0  0  0  0  0
    1.5883  -52.5963  -24.1183 C   0  0  0  0  0  0  0  0  0  0  0  0
    2.2432  -53.4384  -25.5316 Cl  0  0  0  0  0  0  0  0  0  0  0  0
   -0.9293  -53.3740  -21.0499 S   0  0  0  0  0  0  0  0  0  0  0  0
   -1.2225  -54.7486  -21.6229 O   0  0  0  0  0  0  0  0  0  0  0  0
   -2.2301  -52.6496  -20.9723 O   0  0  0  0  0  0  0  0  0  0  0  0
   -0.2684  -53.6126  -19.4945 N   0  0  0  0  0  0  0  0  0  0  0  0
    0.3932  -54.4083  -19.3752 H   0  0  0  0  0  0  0  0  0  0  0  0
   -0.5939  -52.7593  -18.3580 C   0  0  0  0  0  0  0  0  0  0  0  0
   -1.6466  -53.0619  -17.5243 C   0  0  0  0  0  0  0  0  0  0  0  0
   -1.5776  -51.7764  -16.4042 S   0  0  0  0  0  0  0  0  0  0  0  0
   -0.2364  -50.9421  -17.0500 C   0  0  0  0  0  0  0  0  0  0  0  0
    0.0872  -51.6917  -18.0882 N   0  0  0  0  0  0  0  0  0  0  0  0
    2.4190  -49.7495  -25.7972 C   0  0  0  0  0  0  0  0  0  0  0  0
    2.9066  -50.6757  -24.7933 N   0  0  0  0  0  0  0  0  0  0  0  0
    4.3073  -50.9357  -24.7327 C   0  0  0  0  0  0  0  0  0  0  0  0
    5.1654  -49.7026  -24.9283 C   0  0  0  0  0  0  0  0  0  0  0  0
    6.4968  -50.2030  -24.3783 C   0  0  0  0  0  0  0  0  0  0  0  0
    6.1509  -51.0142  -23.2550 N   0  0  0  0  0  0  0  0  0  0  0  0
    4.7639  -51.3582  -23.3290 C   0  0  0  0  0  0  0  0  0  0  0  0
    6.5457  -50.3597  -22.0439 C   0  0  0  0  0  0  0  0  0  0  0  0
    5.3331  -49.9879  -21.2753 C   0  0  0  0  0  0  0  0  0  0  0  0
    4.8166  -48.6926  -21.3843 C   0  0  0  0  0  0  0  0  0  0  0  0
    3.6907  -48.2871  -20.7017 C   0  0  0  0  0  0  0  0  0  0  0  0
    3.0327  -49.1694  -19.8770 C   0  0  0  0  0  0  0  0  0  0  0  0
    1.6053  -48.6316  -19.0206 Cl  0  0  0  0  0  0  0  0  0  0  0  0
    3.5076  -50.4469  -19.7438 C   0  0  0  0  0  0  0  0  0  0  0  0
    4.6460  -50.8357  -20.4420 C   0  0  0  0  0  0  0  0  0  0  0  0
 19 20  1  0  0  0
 20  1  1  0  0  0
  1  2  2  0  0  0
  2  3  1  0  0  0
  3  4  1  0  0  0
  3  5  2  0  0  0
  5  9  1  0  0  0
  9 10  2  0  0  0
  9 11  2  0  0  0
  9 12  1  0  0  0
 12 14  1  0  0  0
 14 15  2  0  0  0
 15 16  1  0  0  0
 16 17  1  0  0  0
 17 18  2  0  0  0
  5  6  1  0  0  0
  6  7  2  0  0  0
  7  8  1  0  0  0
 20 21  1  0  0  0
 21 22  1  0  0  0
 22 23  1  0  0  0
 23 24  1  0  0  0
 24 26  1  0  0  0
 26 27  1  0  0  0
 27 28  2  0  0  0
 28 29  1  0  0  0
 29 30  2  0  0  0
 30 31  1  0  0  0
 30 32  1  0  0  0
 32 33  2  0  0  0
 24 25  1  0  0  0
  7  1  1  0  0  0
 25 21  1  0  0  0
 18 14  1  0  0  0
 33 27  1  0  0  0
 12 13  1  0  0  0
M  END
> <minimizedAffinity>
-6.46765

> <CNNscore>
0.2431476414

> <CNNaffinity>
6.6240110397

> <CNN_VS>
1.6106126308

> <CNNaffinity_variance>
0.3974586427

$$$$
[H]c1nc(N([H])S(=O)(=O)c2c([H])c(Cl)c(N(C([H])([H])[H])[C@]3([H])C([H])([H])N(C([H])([H])c4c([H])c([H])c(Cl)c([H])c4[H])C([H])([H])C3([H])[H])c([H])c2F)c([H])s1


 33 36  0  0  0  0  0  0  0  0999 V2000
    2.2504  -49.4152  -20.8140 C   0  0  0  0  0  0  0  0  0  0  0  0
    0.9210  -49.4405  -21.1776 C   0  0  0  0  0  0  0  0  0  0  0  0
    0.1464  -50.5652  -21.0063 C   0  0  0  0  0  0  0  0  0  0  0  0
   -1.1710  -50.5768  -21.3713 F   0  0  0  0  0  0  0  0  0  0  0  0
    0.6666  -51.7398  -20.4551 C   0  0  0  0  0  0  0  0  0  0  0  0
    1.9945  -51.7050  -20.0945 C   0  0  0  0  0  0  0  0  0  0  0  0
    2.7635  -50.5742  -20.2699 C   0  0  0  0  0  0  0  0  0  0  0  0
    4.4689  -50.5710  -19.7933 Cl  0  0  0  0  0  0  0  0  0  0  0  0
   -0.3671  -53.1346  -20.2348 S   0  0  0  0  0  0  0  0  0  0  0  0
    0.3579  -54.3008  -20.8815 O   0  0  0  0  0  0  0  0  0  0  0  0
   -1.6664  -52.9808  -20.9499 O   0  0  0  0  0  0  0  0  0  0  0  0
   -0.6154  -53.5478  -18.5975 N   0  0  0  0  0  0  0  0  0  0  0  0
   -0.4784  -54.5457  -18.3322 H   0  0  0  0  0  0  0  0  0  0  0  0
   -1.0038  -52.5720  -17.5862 C   0  0  0  0  0  0  0  0  0  0  0  0
   -2.1928  -52.6952  -16.9036 C   0  0  0  0  0  0  0  0  0  0  0  0
   -2.1427  -51.3318  -15.8785 S   0  0  0  0  0  0  0  0  0  0  0  0
   -0.6377  -50.6944  -16.3690 C   0  0  0  0  0  0  0  0  0  0  0  0
   -0.2537  -51.5588  -17.2909 N   0  0  0  0  0  0  0  0  0  0  0  0
    3.3505  -47.4143  -19.8432 C   0  0  0  0  0  0  0  0  0  0  0  0
    3.0741  -48.2752  -20.9773 N   0  0  0  0  0  0  0  0  0  0  0  0
    3.6488  -47.9415  -22.2389 C   0  0  0  0  0  0  0  0  0  0  0  0
    5.1036  -48.3431  -22.3716 C   0  0  0  0  0  0  0  0  0  0  0  0
    5.2706  -48.2780  -23.8859 C   0  0  0  0  0  0  0  0  0  0  0  0
    4.0418  -48.7777  -24.4149 N   0  0  0  0  0  0  0  0  0  0  0  0
    3.0419  -48.7541  -23.3916 C   0  0  0  0  0  0  0  0  0  0  0  0
    4.2580  -50.0591  -25.0169 C   0  0  0  0  0  0  0  0  0  0  0  0
    3.0295  -50.8771  -24.8721 C   0  0  0  0  0  0  0  0  0  0  0  0
    2.9686  -51.8623  -23.8811 C   0  0  0  0  0  0  0  0  0  0  0  0
    1.8548  -52.6507  -23.6917 C   0  0  0  0  0  0  0  0  0  0  0  0
    0.7498  -52.4823  -24.4931 C   0  0  0  0  0  0  0  0  0  0  0  0
   -0.6525  -53.4952  -24.2336 Cl  0  0  0  0  0  0  0  0  0  0  0  0
    0.7707  -51.5278  -25.4748 C   0  0  0  0  0  0  0  0  0  0  0  0
    1.9054  -50.7424  -25.6491 C   0  0  0  0  0  0  0  0  0  0  0  0
 19 20  1  0  0  0
 20  1  1  0  0  0
  1  2  2  0  0  0
  2  3  1  0  0  0
  3  4  1  0  0  0
  3  5  2  0  0  0
  5  9  1  0  0  0
  9 10  2  0  0  0
  9 11  2  0  0  0
  9 12  1  0  0  0
 12 14  1  0  0  0
 14 15  2  0  0  0
 15 16  1  0  0  0
 16 17  1  0  0  0
 17 18  2  0  0  0
  5  6  1  0  0  0
  6  7  2  0  0  0
  7  8  1  0  0  0
 20 21  1  0  0  0
 21 22  1  0  0  0
 22 23  1  0  0  0
 23 24  1  0  0  0
 24 26  1  0  0  0
 26 27  1  0  0  0
 27 28  2  0  0  0
 28 29  1  0  0  0
 29 30  2  0  0  0
 30 31  1  0  0  0
 30 32  1  0  0  0
 32 33  2  0  0  0
 24 25  1  0  0  0
  7  1  1  0  0  0
 25 21  1  0  0  0
 18 14  1  0  0  0
 33 27  1  0  0  0
 12 13  1  0  0  0
M  END
> <minimizedAffinity>
-6.56244

> <CNNscore>
0.2340257317

> <CNNaffinity>
6.6822800636

> <CNN_VS>
1.5638254881

> <CNNaffinity_variance>
0.1740213931

$$$$
[H]c1nc(N([H])S(=O)(=O)c2c([H])c(Cl)c(N(C([H])([H])[H])[C@]3([H])C([H])([H])N(C([H])([H])c4c([H])c([H])c(Cl)c([H])c4[H])C([H])([H])C3([H])[H])c([H])c2F)c([H])s1


 33 36  0  0  0  0  0  0  0  0999 V2000
    2.8162  -49.5480  -23.3761 C   0  0  0  0  0  0  0  0  0  0  0  0
    1.9446  -49.4372  -22.3139 C   0  0  0  0  0  0  0  0  0  0  0  0
    1.0607  -50.4434  -21.9966 C   0  0  0  0  0  0  0  0  0  0  0  0
    0.2016  -50.3207  -20.9403 F   0  0  0  0  0  0  0  0  0  0  0  0
    1.0006  -51.6294  -22.7341 C   0  0  0  0  0  0  0  0  0  0  0  0
    1.8748  -51.7313  -23.7923 C   0  0  0  0  0  0  0  0  0  0  0  0
    2.7569  -50.7184  -24.1035 C   0  0  0  0  0  0  0  0  0  0  0  0
    3.8650  -50.8887  -25.4741 Cl  0  0  0  0  0  0  0  0  0  0  0  0
   -0.1238  -52.8890  -22.2738 S   0  0  0  0  0  0  0  0  0  0  0  0
   -1.4385  -52.1906  -21.9779 O   0  0  0  0  0  0  0  0  0  0  0  0
    0.2953  -53.5753  -21.0183 O   0  0  0  0  0  0  0  0  0  0  0  0
   -0.4280  -54.0191  -23.5162 N   0  0  0  0  0  0  0  0  0  0  0  0
   -0.5799  -55.0097  -23.2320 H   0  0  0  0  0  0  0  0  0  0  0  0
   -0.4796  -53.6496  -24.9256 C   0  0  0  0  0  0  0  0  0  0  0  0
    0.2939  -54.3038  -25.8575 C   0  0  0  0  0  0  0  0  0  0  0  0
   -0.1454  -53.4965  -27.2954 S   0  0  0  0  0  0  0  0  0  0  0  0
   -1.2687  -52.3920  -26.6394 C   0  0  0  0  0  0  0  0  0  0  0  0
   -1.2477  -52.6998  -25.3551 N   0  0  0  0  0  0  0  0  0  0  0  0
    5.1425  -48.6857  -23.4065 C   0  0  0  0  0  0  0  0  0  0  0  0
    3.7368  -48.5317  -23.7288 N   0  0  0  0  0  0  0  0  0  0  0  0
    3.3203  -47.3447  -24.4002 C   0  0  0  0  0  0  0  0  0  0  0  0
    4.2593  -46.1720  -24.2046 C   0  0  0  0  0  0  0  0  0  0  0  0
    3.8118  -45.2666  -25.3471 C   0  0  0  0  0  0  0  0  0  0  0  0
    3.5285  -46.1523  -26.4310 N   0  0  0  0  0  0  0  0  0  0  0  0
    3.3829  -47.4840  -25.9280 C   0  0  0  0  0  0  0  0  0  0  0  0
    4.5187  -45.9994  -27.4542 C   0  0  0  0  0  0  0  0  0  0  0  0
    3.8835  -46.2019  -28.7789 C   0  0  0  0  0  0  0  0  0  0  0  0
    2.6181  -45.6603  -29.0280 C   0  0  0  0  0  0  0  0  0  0  0  0
    1.9775  -45.8078  -30.2388 C   0  0  0  0  0  0  0  0  0  0  0  0
    2.5834  -46.5086  -31.2554 C   0  0  0  0  0  0  0  0  0  0  0  0
    1.7504  -46.6825  -32.7837 Cl  0  0  0  0  0  0  0  0  0  0  0  0
    3.8225  -47.0541  -31.0502 C   0  0  0  0  0  0  0  0  0  0  0  0
    4.4518  -46.8933  -29.8202 C   0  0  0  0  0  0  0  0  0  0  0  0
 19 20  1  0  0  0
 20  1  1  0  0  0
  1  2  2  0  0  0
  2  3  1  0  0  0
  3  4  1  0  0  0
  3  5  2  0  0  0
  5  9  1  0  0  0
  9 10  2  0  0  0
  9 11  2  0  0  0
  9 12  1  0  0  0
 12 14  1  0  0  0
 14 15  2  0  0  0
 15 16  1  0  0  0
 16 17  1  0  0  0
 17 18  2  0  0  0
  5  6  1  0  0  0
  6  7  2  0  0  0
  7  8  1  0  0  0
 20 21  1  0  0  0
 21 22  1  0  0  0
 22 23  1  0  0  0
 23 24  1  0  0  0
 24 26  1  0  0  0
 26 27  1  0  0  0
 27 28  2  0  0  0
 28 29  1  0  0  0
 29 30  2  0  0  0
 30 31  1  0  0  0
 30 32  1  0  0  0
 32 33  2  0  0  0
 24 25  1  0  0  0
  7  1  1  0  0  0
 25 21  1  0  0  0
 18 14  1  0  0  0
 33 27  1  0  0  0
 12 13  1  0  0  0
M  END
> <minimizedAffinity>
-7.16443

> <CNNscore>
0.2218008488

> <CNNaffinity>
6.6778435707

> <CNN_VS>
1.4811513424

> <CNNaffinity_variance>
0.3015161455

$$$$
[H]c1nc(N([H])S(=O)(=O)c2c([H])c(Cl)c(N(C([H])([H])[H])[C@]3([H])C([H])([H])N(C([H])([H])c4c([H])c([H])c(Cl)c([H])c4[H])C([H])([H])C3([H])[H])c([H])c2F)c([H])s1


 33 36  0  0  0  0  0  0  0  0999 V2000
    3.1717  -50.8249  -24.6020 C   0  0  0  0  0  0  0  0  0  0  0  0
    1.9483  -50.4492  -25.1140 C   0  0  0  0  0  0  0  0  0  0  0  0
    1.0078  -51.3793  -25.4945 C   0  0  0  0  0  0  0  0  0  0  0  0
   -0.2018  -50.9930  -26.0009 F   0  0  0  0  0  0  0  0  0  0  0  0
    1.2437  -52.7525  -25.3818 C   0  0  0  0  0  0  0  0  0  0  0  0
    2.4676  -53.1182  -24.8691 C   0  0  0  0  0  0  0  0  0  0  0  0
    3.4042  -52.1799  -24.4906 C   0  0  0  0  0  0  0  0  0  0  0  0
    4.9677  -52.6922  -23.8359 Cl  0  0  0  0  0  0  0  0  0  0  0  0
    0.0049  -53.8941  -25.8559 S   0  0  0  0  0  0  0  0  0  0  0  0
    0.7238  -55.2009  -26.1372 O   0  0  0  0  0  0  0  0  0  0  0  0
   -0.6686  -53.4878  -27.1224 O   0  0  0  0  0  0  0  0  0  0  0  0
   -1.1388  -54.2082  -24.6286 N   0  0  0  0  0  0  0  0  0  0  0  0
   -2.0383  -54.6472  -24.9171 H   0  0  0  0  0  0  0  0  0  0  0  0
   -0.9013  -53.8885  -23.2261 C   0  0  0  0  0  0  0  0  0  0  0  0
   -0.7634  -54.8850  -22.2865 C   0  0  0  0  0  0  0  0  0  0  0  0
   -0.5118  -53.9805  -20.8615 S   0  0  0  0  0  0  0  0  0  0  0  0
   -0.5951  -52.4133  -21.5316 C   0  0  0  0  0  0  0  0  0  0  0  0
   -0.8109  -52.6658  -22.8100 N   0  0  0  0  0  0  0  0  0  0  0  0
    5.1503  -49.4346  -25.1574 C   0  0  0  0  0  0  0  0  0  0  0  0
    4.1604  -49.8936  -24.2019 N   0  0  0  0  0  0  0  0  0  0  0  0
    4.2147  -49.3852  -22.8708 C   0  0  0  0  0  0  0  0  0  0  0  0
    5.5534  -48.7780  -22.5041 C   0  0  0  0  0  0  0  0  0  0  0  0
    5.1606  -47.9664  -21.2744 C   0  0  0  0  0  0  0  0  0  0  0  0
    3.8702  -47.4357  -21.5788 N   0  0  0  0  0  0  0  0  0  0  0  0
    3.3052  -48.1641  -22.6732 C   0  0  0  0  0  0  0  0  0  0  0  0
    3.9626  -46.0208  -21.7802 C   0  0  0  0  0  0  0  0  0  0  0  0
    3.7256  -45.7177  -23.2125 C   0  0  0  0  0  0  0  0  0  0  0  0
    4.8067  -45.6841  -24.0993 C   0  0  0  0  0  0  0  0  0  0  0  0
    4.6521  -45.4148  -25.4416 C   0  0  0  0  0  0  0  0  0  0  0  0
    3.3995  -45.1667  -25.9524 C   0  0  0  0  0  0  0  0  0  0  0  0
    3.2282  -44.8272  -27.6598 Cl  0  0  0  0  0  0  0  0  0  0  0  0
    2.3156  -45.1906  -25.1159 C   0  0  0  0  0  0  0  0  0  0  0  0
    2.4938  -45.4647  -23.7639 C   0  0  0  0  0  0  0  0  0  0  0  0
 19 20  1  0  0  0
 20  1  1  0  0  0
  1  2  2  0  0  0
  2  3  1  0  0  0
  3  4  1  0  0  0
  3  5  2  0  0  0
  5  9  1  0  0  0
  9 10  2  0  0  0
  9 11  2  0  0  0
  9 12  1  0  0  0
 12 14  1  0  0  0
 14 15  2  0  0  0
 15 16  1  0  0  0
 16 17  1  0  0  0
 17 18  2  0  0  0
  5  6  1  0  0  0
  6  7  2  0  0  0
  7  8  1  0  0  0
 20 21  1  0  0  0
 21 22  1  0  0  0
 22 23  1  0  0  0
 23 24  1  0  0  0
 24 26  1  0  0  0
 26 27  1  0  0  0
 27 28  2  0  0  0
 28 29  1  0  0  0
 29 30  2  0  0  0
 30 31  1  0  0  0
 30 32  1  0  0  0
 32 33  2  0  0  0
 24 25  1  0  0  0
  7  1  1  0  0  0
 25 21  1  0  0  0
 18 14  1  0  0  0
 33 27  1  0  0  0
 12 13  1  0  0  0
M  END
> <minimizedAffinity>
-7.13412

> <CNNscore>
0.2205760479

> <CNNaffinity>
6.7355642319

> <CNN_VS>
1.4857041836

> <CNNaffinity_variance>
0.2784022689

$$$$
[H]c1nc(N([H])S(=O)(=O)c2c([H])c(Cl)c(N(C([H])([H])[H])[C@]3([H])C([H])([H])N(C([H])([H])c4c([H])c([H])c(Cl)c([H])c4[H])C([H])([H])C3([H])[H])c([H])c2F)c([H])s1


 33 36  0  0  0  0  0  0  0  0999 V2000
    2.9035  -50.4334  -23.2475 C   0  0  0  0  0  0  0  0  0  0  0  0
    1.7994  -50.1406  -22.4760 C   0  0  0  0  0  0  0  0  0  0  0  0
    0.8339  -51.0845  -22.2086 C   0  0  0  0  0  0  0  0  0  0  0  0
   -0.2564  -50.7808  -21.4418 F   0  0  0  0  0  0  0  0  0  0  0  0
    0.9224  -52.3883  -22.7048 C   0  0  0  0  0  0  0  0  0  0  0  0
    2.0285  -52.6715  -23.4735 C   0  0  0  0  0  0  0  0  0  0  0  0
    2.9908  -51.7200  -23.7368 C   0  0  0  0  0  0  0  0  0  0  0  0
    4.3988  -52.1249  -24.7313 Cl  0  0  0  0  0  0  0  0  0  0  0  0
   -0.3191  -53.5583  -22.3146 S   0  0  0  0  0  0  0  0  0  0  0  0
   -1.4752  -52.7654  -21.7328 O   0  0  0  0  0  0  0  0  0  0  0  0
    0.1285  -54.5112  -21.2588 O   0  0  0  0  0  0  0  0  0  0  0  0
   -0.9217  -54.3930  -23.6759 N   0  0  0  0  0  0  0  0  0  0  0  0
   -1.5102  -55.2337  -23.4969 H   0  0  0  0  0  0  0  0  0  0  0  0
   -0.6445  -53.9762  -25.0453 C   0  0  0  0  0  0  0  0  0  0  0  0
    0.1284  -54.7526  -25.8787 C   0  0  0  0  0  0  0  0  0  0  0  0
    0.1290  -53.8236  -27.3102 S   0  0  0  0  0  0  0  0  0  0  0  0
   -0.8376  -52.5230  -26.7751 C   0  0  0  0  0  0  0  0  0  0  0  0
   -1.1093  -52.8690  -25.5297 N   0  0  0  0  0  0  0  0  0  0  0  0
    3.8143  -48.6698  -24.7362 C   0  0  0  0  0  0  0  0  0  0  0  0
    3.9136  -49.4856  -23.5412 N   0  0  0  0  0  0  0  0  0  0  0  0
    5.0414  -49.3049  -22.6875 C   0  0  0  0  0  0  0  0  0  0  0  0
    5.3528  -47.8529  -22.3877 C   0  0  0  0  0  0  0  0  0  0  0  0
    6.2516  -48.0101  -21.1659 C   0  0  0  0  0  0  0  0  0  0  0  0
    5.6781  -49.0854  -20.4214 N   0  0  0  0  0  0  0  0  0  0  0  0
    4.7870  -49.8222  -21.2645 C   0  0  0  0  0  0  0  0  0  0  0  0
    5.0900  -48.5821  -19.2166 C   0  0  0  0  0  0  0  0  0  0  0  0
    3.7840  -49.2499  -18.9980 C   0  0  0  0  0  0  0  0  0  0  0  0
    3.7508  -50.6022  -18.6418 C   0  0  0  0  0  0  0  0  0  0  0  0
    2.5711  -51.2780  -18.4190 C   0  0  0  0  0  0  0  0  0  0  0  0
    1.3692  -50.6214  -18.5449 C   0  0  0  0  0  0  0  0  0  0  0  0
   -0.1155  -51.5005  -18.2571 Cl  0  0  0  0  0  0  0  0  0  0  0  0
    1.3600  -49.2968  -18.8922 C   0  0  0  0  0  0  0  0  0  0  0  0
    2.5625  -48.6333  -19.1126 C   0  0  0  0  0  0  0  0  0  0  0  0
 19 20  1  0  0  0
 20  1  1  0  0  0
  1  2  2  0  0  0
  2  3  1  0  0  0
  3  4  1  0  0  0
  3  5  2  0  0  0
  5  9  1  0  0  0
  9 10  2  0  0  0
  9 11  2  0  0  0
  9 12  1  0  0  0
 12 14  1  0  0  0
 14 15  2  0  0  0
 15 16  1  0  0  0
 16 17  1  0  0  0
 17 18  2  0  0  0
  5  6  1  0  0  0
  6  7  2  0  0  0
  7  8  1  0  0  0
 20 21  1  0  0  0
 21 22  1  0  0  0
 22 23  1  0  0  0
 23 24  1  0  0  0
 24 26  1  0  0  0
 26 27  1  0  0  0
 27 28  2  0  0  0
 28 29  1  0  0  0
 29 30  2  0  0  0
 30 31  1  0  0  0
 30 32  1  0  0  0
 32 33  2  0  0  0
 24 25  1  0  0  0
  7  1  1  0  0  0
 25 21  1  0  0  0
 18 14  1  0  0  0
 33 27  1  0  0  0
 12 13  1  0  0  0
M  END
> <minimizedAffinity>
-7.01250

> <CNNscore>
0.2138282359

> <CNNaffinity>
6.9732880592

> <CNN_VS>
1.4910858870

> <CNNaffinity_variance>
0.1530038416

$$$$
[H]OC1([H])C([H])([H])OC([H])([H])C([H])([H])C1(c1c([H])c([H])c(C(F)(F)F)c([H])c1F)N([H])C(=O)c1c([H])nn2c([H])c(C([H])([H])[H])c([H])nc12


 33 36  0  0  0  0  0  0  0  0999 V2000
    0.5766  -52.8706  -26.0984 C   0  0  0  0  0  0  0  0  0  0  0  0
   -0.6527  -52.3690  -26.5941 C   0  0  0  0  0  0  0  0  0  0  0  0
   -0.9201  -52.3847  -28.0915 C   0  0  0  0  0  0  0  0  0  0  0  0
    0.0060  -52.9255  -28.9051 O   0  0  0  0  0  0  0  0  0  0  0  0
    0.7149  -53.9507  -28.4071 C   0  0  0  0  0  0  0  0  0  0  0  0
    1.0356  -54.0526  -26.9896 C   0  0  0  0  0  0  0  0  0  0  0  0
    0.5018  -55.2646  -26.5064 O   0  0  0  0  0  0  0  0  0  0  0  0
    1.1619  -55.9675  -26.4885 H   0  0  0  0  0  0  0  0  0  0  0  0
    1.7888  -52.1099  -25.8466 C   0  0  0  0  0  0  0  0  0  0  0  0
    1.7629  -50.7655  -26.2572 C   0  0  0  0  0  0  0  0  0  0  0  0
    2.7728  -49.8772  -25.9680 C   0  0  0  0  0  0  0  0  0  0  0  0
    3.8720  -50.2409  -25.2629 C   0  0  0  0  0  0  0  0  0  0  0  0
    3.9342  -51.5688  -24.8361 C   0  0  0  0  0  0  0  0  0  0  0  0
    2.8997  -52.4349  -25.1434 C   0  0  0  0  0  0  0  0  0  0  0  0
    3.0488  -53.6966  -24.7354 F   0  0  0  0  0  0  0  0  0  0  0  0
    4.9421  -49.2778  -24.9150 C   0  0  0  0  0  0  0  0  0  0  0  0
    4.6379  -48.6171  -23.7188 F   0  0  0  0  0  0  0  0  0  0  0  0
    6.1283  -49.9654  -24.8082 F   0  0  0  0  0  0  0  0  0  0  0  0
    5.1780  -48.3426  -25.9200 F   0  0  0  0  0  0  0  0  0  0  0  0
   -0.3556  -52.7967  -23.8159 C   0  0  0  0  0  0  0  0  0  0  0  0
   -0.7620  -51.6331  -24.1005 O   0  0  0  0  0  0  0  0  0  0  0  0
    0.3574  -53.5790  -24.7953 N   0  0  0  0  0  0  0  0  0  0  0  0
    0.6697  -54.5059  -24.5632 H   0  0  0  0  0  0  0  0  0  0  0  0
    0.3397  -51.1005  -17.3705 C   0  0  0  0  0  0  0  0  0  0  0  0
    0.0913  -51.6060  -18.7675 C   0  0  0  0  0  0  0  0  0  0  0  0
    0.4467  -50.8739  -19.8789 C   0  0  0  0  0  0  0  0  0  0  0  0
    0.2198  -51.3453  -21.1195 N   0  0  0  0  0  0  0  0  0  0  0  0
   -0.3562  -52.5386  -21.2903 C   0  0  0  0  0  0  0  0  0  0  0  0
   -0.6560  -53.2294  -22.4755 C   0  0  0  0  0  0  0  0  0  0  0  0
   -1.2152  -54.3929  -22.0406 C   0  0  0  0  0  0  0  0  0  0  0  0
   -1.2401  -54.3903  -20.6905 N   0  0  0  0  0  0  0  0  0  0  0  0
   -0.7116  -53.2616  -20.2374 N   0  0  0  0  0  0  0  0  0  0  0  0
   -0.5126  -52.8451  -18.9615 C   0  0  0  0  0  0  0  0  0  0  0  0
 24 25  1  0  0  0
 25 26  1  0  0  0
 26 27  2  0  0  0
 27 28  1  0  0  0
 28 29  2  0  0  0
 29 20  1  0  0  0
 20 21  2  0  0  0
 20 22  1  0  0  0
 22  1  1  0  0  0
  1  9  1  0  0  0
  9 10  2  0  0  0
 10 11  1  0  0  0
 11 12  2  0  0  0
 12 16  1  0  0  0
 16 17  1  0  0  0
 16 18  1  0  0  0
 16 19  1  0  0  0
 12 13  1  0  0  0
 13 14  2  0  0  0
 14 15  1  0  0  0
  1  2  1  0  0  0
  2  3  1  0  0  0
  3  4  1  0  0  0
  4  5  1  0  0  0
  5  6  1  0  0  0
  6  7  1  0  0  0
 29 30  1  0  0  0
 30 31  2  0  0  0
 31 32  1  0  0  0
 32 33  1  0  0  0
 33 25  2  0  0  0
 32 28  1  0  0  0
  6  1  1  0  0  0
 14  9  1  0  0  0
 22 23  1  0  0  0
  7  8  1  0  0  0
M  END
> <minimizedAffinity>
-8.68027

> <CNNscore>
0.5390937924

> <CNNaffinity>
6.8131279945

> <CNN_VS>
3.6729149818

> <CNNaffinity_variance>
0.2393068969

$$$$
[H]OC1([H])C([H])([H])OC([H])([H])C([H])([H])C1(c1c([H])c([H])c(C(F)(F)F)c([H])c1F)N([H])C(=O)c1c([H])nn2c([H])c(C([H])([H])[H])c([H])nc12


 33 36  0  0  0  0  0  0  0  0999 V2000
    2.0738  -50.7917  -19.1973 C   0  0  0  0  0  0  0  0  0  0  0  0
    2.9940  -51.0435  -18.1493 C   0  0  0  0  0  0  0  0  0  0  0  0
    2.9630  -50.1768  -16.8995 C   0  0  0  0  0  0  0  0  0  0  0  0
    2.0213  -49.2198  -16.8030 O   0  0  0  0  0  0  0  0  0  0  0  0
    0.8412  -49.4802  -17.3871 C   0  0  0  0  0  0  0  0  0  0  0  0
    0.7367  -50.2991  -18.5876 C   0  0  0  0  0  0  0  0  0  0  0  0
   -0.1011  -51.3952  -18.2976 O   0  0  0  0  0  0  0  0  0  0  0  0
   -1.0094  -51.2397  -18.5818 H   0  0  0  0  0  0  0  0  0  0  0  0
    2.2846  -49.9384  -20.3544 C   0  0  0  0  0  0  0  0  0  0  0  0
    1.6470  -48.6860  -20.3143 C   0  0  0  0  0  0  0  0  0  0  0  0
    1.8566  -47.7111  -21.2621 C   0  0  0  0  0  0  0  0  0  0  0  0
    2.6980  -47.8935  -22.3092 C   0  0  0  0  0  0  0  0  0  0  0  0
    3.3516  -49.1251  -22.3834 C   0  0  0  0  0  0  0  0  0  0  0  0
    3.1184  -50.0825  -21.4119 C   0  0  0  0  0  0  0  0  0  0  0  0
    3.7488  -51.2476  -21.5718 F   0  0  0  0  0  0  0  0  0  0  0  0
    2.9571  -46.8320  -23.3090 C   0  0  0  0  0  0  0  0  0  0  0  0
    1.9223  -45.8891  -23.3032 F   0  0  0  0  0  0  0  0  0  0  0  0
    4.1625  -46.2399  -23.0124 F   0  0  0  0  0  0  0  0  0  0  0  0
    3.1291  -47.3311  -24.5980 F   0  0  0  0  0  0  0  0  0  0  0  0
    0.5081  -51.9495  -20.7113 C   0  0  0  0  0  0  0  0  0  0  0  0
    0.0016  -50.8121  -20.9352 O   0  0  0  0  0  0  0  0  0  0  0  0
    1.6324  -52.0831  -19.8182 N   0  0  0  0  0  0  0  0  0  0  0  0
    2.0336  -52.9897  -19.6523 H   0  0  0  0  0  0  0  0  0  0  0  0
   -0.0314  -54.9103  -26.6984 C   0  0  0  0  0  0  0  0  0  0  0  0
    0.0003  -54.3676  -25.2937 C   0  0  0  0  0  0  0  0  0  0  0  0
    0.8214  -53.3205  -24.9377 C   0  0  0  0  0  0  0  0  0  0  0  0
    0.8320  -52.8471  -23.6774 N   0  0  0  0  0  0  0  0  0  0  0  0
    0.0395  -53.3897  -22.7488 C   0  0  0  0  0  0  0  0  0  0  0  0
   -0.1320  -53.0407  -21.3996 C   0  0  0  0  0  0  0  0  0  0  0  0
   -1.0717  -53.9202  -20.9535 C   0  0  0  0  0  0  0  0  0  0  0  0
   -1.4328  -54.7306  -21.9715 N   0  0  0  0  0  0  0  0  0  0  0  0
   -0.7575  -54.4011  -23.0641 N   0  0  0  0  0  0  0  0  0  0  0  0
   -0.8159  -54.9259  -24.3140 C   0  0  0  0  0  0  0  0  0  0  0  0
 24 25  1  0  0  0
 25 26  1  0  0  0
 26 27  2  0  0  0
 27 28  1  0  0  0
 28 29  2  0  0  0
 29 20  1  0  0  0
 20 21  2  0  0  0
 20 22  1  0  0  0
 22  1  1  0  0  0
  1  9  1  0  0  0
  9 10  2  0  0  0
 10 11  1  0  0  0
 11 12  2  0  0  0
 12 16  1  0  0  0
 16 17  1  0  0  0
 16 18  1  0  0  0
 16 19  1  0  0  0
 12 13  1  0  0  0
 13 14  2  0  0  0
 14 15  1  0  0  0
  1  2  1  0  0  0
  2  3  1  0  0  0
  3  4  1  0  0  0
  4  5  1  0  0  0
  5  6  1  0  0  0
  6  7  1  0  0  0
 29 30  1  0  0  0
 30 31  2  0  0  0
 31 32  1  0  0  0
 32 33  1  0  0  0
 33 25  2  0  0  0
 32 28  1  0  0  0
  6  1  1  0  0  0
 14  9  1  0  0  0
 22 23  1  0  0  0
  7  8  1  0  0  0
M  END
> <minimizedAffinity>
-7.95123

> <CNNscore>
0.4983697534

> <CNNaffinity>
6.5056519508

> <CNN_VS>
3.2422201633

> <CNNaffinity_variance>
0.3828204572

$$$$
[H]OC1([H])C([H])([H])OC([H])([H])C([H])([H])C1(c1c([H])c([H])c(C(F)(F)F)c([H])c1F)N([H])C(=O)c1c([H])nn2c([H])c(C([H])([H])[H])c([H])nc12


 33 36  0  0  0  0  0  0  0  0999 V2000
    1.3163  -50.5270  -18.8246 C   0  0  0  0  0  0  0  0  0  0  0  0
    1.5212  -49.4623  -19.7372 C   0  0  0  0  0  0  0  0  0  0  0  0
    2.4916  -48.3459  -19.3817 C   0  0  0  0  0  0  0  0  0  0  0  0
    3.1711  -48.4284  -18.2227 O   0  0  0  0  0  0  0  0  0  0  0  0
    3.4898  -49.6627  -17.8022 C   0  0  0  0  0  0  0  0  0  0  0  0
    2.6445  -50.8163  -18.0800 C   0  0  0  0  0  0  0  0  0  0  0  0
    3.4112  -51.7577  -18.7967 O   0  0  0  0  0  0  0  0  0  0  0  0
    3.7814  -52.4356  -18.2192 H   0  0  0  0  0  0  0  0  0  0  0  0
    0.2946  -50.6057  -17.7943 C   0  0  0  0  0  0  0  0  0  0  0  0
   -0.3744  -51.8379  -17.6902 C   0  0  0  0  0  0  0  0  0  0  0  0
   -1.2664  -52.1199  -16.6815 C   0  0  0  0  0  0  0  0  0  0  0  0
   -1.5651  -51.2209  -15.7119 C   0  0  0  0  0  0  0  0  0  0  0  0
   -0.9197  -49.9847  -15.7802 C   0  0  0  0  0  0  0  0  0  0  0  0
   -0.0270  -49.7354  -16.8078 C   0  0  0  0  0  0  0  0  0  0  0  0
    0.5202  -48.5186  -16.8285 F   0  0  0  0  0  0  0  0  0  0  0  0
   -2.4940  -51.5351  -14.6019 C   0  0  0  0  0  0  0  0  0  0  0  0
   -3.1292  -50.3725  -14.1495 F   0  0  0  0  0  0  0  0  0  0  0  0
   -3.4135  -52.4539  -15.0511 F   0  0  0  0  0  0  0  0  0  0  0  0
   -1.8671  -52.1726  -13.5338 F   0  0  0  0  0  0  0  0  0  0  0  0
    0.2285  -51.7229  -20.6875 C   0  0  0  0  0  0  0  0  0  0  0  0
   -0.3075  -50.6165  -20.9855 O   0  0  0  0  0  0  0  0  0  0  0  0
    1.1326  -51.8161  -19.5679 N   0  0  0  0  0  0  0  0  0  0  0  0
    1.5602  -52.6975  -19.3431 H   0  0  0  0  0  0  0  0  0  0  0  0
   -0.0646  -53.6847  -27.0881 C   0  0  0  0  0  0  0  0  0  0  0  0
   -0.0445  -53.3952  -25.6101 C   0  0  0  0  0  0  0  0  0  0  0  0
    0.4860  -52.2285  -25.1055 C   0  0  0  0  0  0  0  0  0  0  0  0
    0.4907  -51.9867  -23.7810 N   0  0  0  0  0  0  0  0  0  0  0  0
   -0.0238  -52.8811  -22.9325 C   0  0  0  0  0  0  0  0  0  0  0  0
   -0.1498  -52.8240  -21.5351 C   0  0  0  0  0  0  0  0  0  0  0  0
   -0.7599  -53.9994  -21.2158 C   0  0  0  0  0  0  0  0  0  0  0  0
   -0.9822  -54.7005  -22.3482 N   0  0  0  0  0  0  0  0  0  0  0  0
   -0.5370  -54.0140  -23.3918 N   0  0  0  0  0  0  0  0  0  0  0  0
   -0.5722  -54.3198  -24.7132 C   0  0  0  0  0  0  0  0  0  0  0  0
 24 25  1  0  0  0
 25 26  1  0  0  0
 26 27  2  0  0  0
 27 28  1  0  0  0
 28 29  2  0  0  0
 29 20  1  0  0  0
 20 21  2  0  0  0
 20 22  1  0  0  0
 22  1  1  0  0  0
  1  9  1  0  0  0
  9 10  2  0  0  0
 10 11  1  0  0  0
 11 12  2  0  0  0
 12 16  1  0  0  0
 16 17  1  0  0  0
 16 18  1  0  0  0
 16 19  1  0  0  0
 12 13  1  0  0  0
 13 14  2  0  0  0
 14 15  1  0  0  0
  1  2  1  0  0  0
  2  3  1  0  0  0
  3  4  1  0  0  0
  4  5  1  0  0  0
  5  6  1  0  0  0
  6  7  1  0  0  0
 29 30  1  0  0  0
 30 31  2  0  0  0
 31 32  1  0  0  0
 32 33  1  0  0  0
 33 25  2  0  0  0
 32 28  1  0  0  0
  6  1  1  0  0  0
 14  9  1  0  0  0
 22 23  1  0  0  0
  7  8  1  0  0  0
M  END
> <minimizedAffinity>
-8.37909

> <CNNscore>
0.4809248447

> <CNNaffinity>
6.4490661621

> <CNN_VS>
3.1015162468

> <CNNaffinity_variance>
0.7405674458

$$$$
[H]OC1([H])C([H])([H])OC([H])([H])C([H])([H])C1(c1c([H])c([H])c(C(F)(F)F)c([H])c1F)N([H])C(=O)c1c([H])nn2c([H])c(C([H])([H])[H])c([H])nc12


 33 36  0  0  0  0  0  0  0  0999 V2000
    0.6286  -52.4219  -25.9708 C   0  0  0  0  0  0  0  0  0  0  0  0
   -0.7071  -52.1516  -26.3598 C   0  0  0  0  0  0  0  0  0  0  0  0
   -1.1088  -52.3044  -27.8191 C   0  0  0  0  0  0  0  0  0  0  0  0
   -0.1885  -52.7443  -28.6974 O   0  0  0  0  0  0  0  0  0  0  0  0
    0.7211  -53.6120  -28.2271 C   0  0  0  0  0  0  0  0  0  0  0  0
    1.1868  -53.5719  -26.8472 C   0  0  0  0  0  0  0  0  0  0  0  0
    0.9046  -54.8193  -26.2540 O   0  0  0  0  0  0  0  0  0  0  0  0
    1.6686  -55.4075  -26.2710 H   0  0  0  0  0  0  0  0  0  0  0  0
    1.7197  -51.4664  -25.8825 C   0  0  0  0  0  0  0  0  0  0  0  0
    2.5735  -51.4092  -26.9980 C   0  0  0  0  0  0  0  0  0  0  0  0
    3.5661  -50.4659  -27.1306 C   0  0  0  0  0  0  0  0  0  0  0  0
    3.7919  -49.5202  -26.1859 C   0  0  0  0  0  0  0  0  0  0  0  0
    2.9632  -49.5433  -25.0625 C   0  0  0  0  0  0  0  0  0  0  0  0
    1.9736  -50.5055  -24.9626 C   0  0  0  0  0  0  0  0  0  0  0  0
    1.2480  -50.4880  -23.8429 F   0  0  0  0  0  0  0  0  0  0  0  0
    4.8329  -48.4784  -26.3436 C   0  0  0  0  0  0  0  0  0  0  0  0
    4.2729  -47.2017  -26.2160 F   0  0  0  0  0  0  0  0  0  0  0  0
    5.8037  -48.6861  -25.3918 F   0  0  0  0  0  0  0  0  0  0  0  0
    5.5152  -48.5722  -27.5543 F   0  0  0  0  0  0  0  0  0  0  0  0
   -0.4968  -52.7650  -23.8028 C   0  0  0  0  0  0  0  0  0  0  0  0
   -1.4241  -52.0320  -24.2535 O   0  0  0  0  0  0  0  0  0  0  0  0
    0.6514  -53.0715  -24.6196 N   0  0  0  0  0  0  0  0  0  0  0  0
    1.3798  -53.6614  -24.2564 H   0  0  0  0  0  0  0  0  0  0  0  0
    0.4145  -51.0707  -17.3840 C   0  0  0  0  0  0  0  0  0  0  0  0
    0.1294  -51.5823  -18.7717 C   0  0  0  0  0  0  0  0  0  0  0  0
    0.3738  -50.8190  -19.8919 C   0  0  0  0  0  0  0  0  0  0  0  0
    0.1158  -51.2962  -21.1241 N   0  0  0  0  0  0  0  0  0  0  0  0
   -0.3832  -52.5259  -21.2779 C   0  0  0  0  0  0  0  0  0  0  0  0
   -0.6955  -53.2275  -22.4535 C   0  0  0  0  0  0  0  0  0  0  0  0
   -1.1482  -54.4307  -22.0030 C   0  0  0  0  0  0  0  0  0  0  0  0
   -1.1024  -54.4397  -20.6534 N   0  0  0  0  0  0  0  0  0  0  0  0
   -0.6314  -53.2798  -20.2160 N   0  0  0  0  0  0  0  0  0  0  0  0
   -0.3955  -52.8595  -18.9477 C   0  0  0  0  0  0  0  0  0  0  0  0
 24 25  1  0  0  0
 25 26  1  0  0  0
 26 27  2  0  0  0
 27 28  1  0  0  0
 28 29  2  0  0  0
 29 20  1  0  0  0
 20 21  2  0  0  0
 20 22  1  0  0  0
 22  1  1  0  0  0
  1  9  1  0  0  0
  9 10  2  0  0  0
 10 11  1  0  0  0
 11 12  2  0  0  0
 12 16  1  0  0  0
 16 17  1  0  0  0
 16 18  1  0  0  0
 16 19  1  0  0  0
 12 13  1  0  0  0
 13 14  2  0  0  0
 14 15  1  0  0  0
  1  2  1  0  0  0
  2  3  1  0  0  0
  3  4  1  0  0  0
  4  5  1  0  0  0
  5  6  1  0  0  0
  6  7  1  0  0  0
 29 30  1  0  0  0
 30 31  2  0  0  0
 31 32  1  0  0  0
 32 33  1  0  0  0
 33 25  2  0  0  0
 32 28  1  0  0  0
  6  1  1  0  0  0
 14  9  1  0  0  0
 22 23  1  0  0  0
  7  8  1  0  0  0
M  END
> <minimizedAffinity>
-8.01036

> <CNNscore>
0.4655655026

> <CNNaffinity>
6.7030906677

> <CNN_VS>
3.1207277775

> <CNNaffinity_variance>
0.3430553079

$$$$
[H]OC1([H])C([H])([H])OC([H])([H])C([H])([H])C1(c1c([H])c([H])c(C(F)(F)F)c([H])c1F)N([H])C(=O)c1c([H])nn2c([H])c(C([H])([H])[H])c([H])nc12


 33 36  0  0  0  0  0  0  0  0999 V2000
    2.2746  -50.3928  -19.4809 C   0  0  0  0  0  0  0  0  0  0  0  0
    1.6266  -49.3154  -20.1347 C   0  0  0  0  0  0  0  0  0  0  0  0
    2.3578  -47.9923  -20.3051 C   0  0  0  0  0  0  0  0  0  0  0  0
    3.6285  -47.8986  -19.8708 O   0  0  0  0  0  0  0  0  0  0  0  0
    4.3713  -49.0139  -19.9482 C   0  0  0  0  0  0  0  0  0  0  0  0
    3.7896  -50.3418  -19.8041 C   0  0  0  0  0  0  0  0  0  0  0  0
    4.0628  -51.0688  -20.9807 O   0  0  0  0  0  0  0  0  0  0  0  0
    4.8401  -51.6314  -20.8844 H   0  0  0  0  0  0  0  0  0  0  0  0
    2.2132  -50.7156  -18.0654 C   0  0  0  0  0  0  0  0  0  0  0  0
    3.4487  -50.9578  -17.4398 C   0  0  0  0  0  0  0  0  0  0  0  0
    3.5748  -51.1389  -16.0818 C   0  0  0  0  0  0  0  0  0  0  0  0
    2.5072  -51.0974  -15.2474 C   0  0  0  0  0  0  0  0  0  0  0  0
    1.2618  -50.8578  -15.8313 C   0  0  0  0  0  0  0  0  0  0  0  0
    1.1717  -50.6788  -17.2005 C   0  0  0  0  0  0  0  0  0  0  0  0
   -0.0560  -50.4934  -17.6893 F   0  0  0  0  0  0  0  0  0  0  0  0
    2.6442  -51.2516  -13.7807 C   0  0  0  0  0  0  0  0  0  0  0  0
    2.1576  -52.4986  -13.3707 F   0  0  0  0  0  0  0  0  0  0  0  0
    3.9717  -51.1098  -13.4505 F   0  0  0  0  0  0  0  0  0  0  0  0
    2.0043  -50.2410  -13.0669 F   0  0  0  0  0  0  0  0  0  0  0  0
    0.5821  -51.6944  -20.7159 C   0  0  0  0  0  0  0  0  0  0  0  0
   -0.1351  -50.6529  -20.6810 O   0  0  0  0  0  0  0  0  0  0  0  0
    1.8997  -51.6914  -20.1300 N   0  0  0  0  0  0  0  0  0  0  0  0
    2.4659  -52.5210  -20.1694 H   0  0  0  0  0  0  0  0  0  0  0  0
   -0.0071  -54.8126  -26.6178 C   0  0  0  0  0  0  0  0  0  0  0  0
    0.0429  -54.2368  -25.2269 C   0  0  0  0  0  0  0  0  0  0  0  0
    0.8286  -53.1481  -24.9191 C   0  0  0  0  0  0  0  0  0  0  0  0
    0.8561  -52.6457  -23.6703 N   0  0  0  0  0  0  0  0  0  0  0  0
    0.1155  -53.1998  -22.7063 C   0  0  0  0  0  0  0  0  0  0  0  0
   -0.0308  -52.8272  -21.3604 C   0  0  0  0  0  0  0  0  0  0  0  0
   -0.9183  -53.7351  -20.8667 C   0  0  0  0  0  0  0  0  0  0  0  0
   -1.2742  -54.5833  -21.8553 N   0  0  0  0  0  0  0  0  0  0  0  0
   -0.6463  -54.2509  -22.9750 N   0  0  0  0  0  0  0  0  0  0  0  0
   -0.7192  -54.8063  -24.2108 C   0  0  0  0  0  0  0  0  0  0  0  0
 24 25  1  0  0  0
 25 26  1  0  0  0
 26 27  2  0  0  0
 27 28  1  0  0  0
 28 29  2  0  0  0
 29 20  1  0  0  0
 20 21  2  0  0  0
 20 22  1  0  0  0
 22  1  1  0  0  0
  1  9  1  0  0  0
  9 10  2  0  0  0
 10 11  1  0  0  0
 11 12  2  0  0  0
 12 16  1  0  0  0
 16 17  1  0  0  0
 16 18  1  0  0  0
 16 19  1  0  0  0
 12 13  1  0  0  0
 13 14  2  0  0  0
 14 15  1  0  0  0
  1  2  1  0  0  0
  2  3  1  0  0  0
  3  4  1  0  0  0
  4  5  1  0  0  0
  5  6  1  0  0  0
  6  7  1  0  0  0
 29 30  1  0  0  0
 30 31  2  0  0  0
 31 32  1  0  0  0
 32 33  1  0  0  0
 33 25  2  0  0  0
 32 28  1  0  0  0
  6  1  1  0  0  0
 14  9  1  0  0  0
 22 23  1  0  0  0
  7  8  1  0  0  0
M  END
> <minimizedAffinity>
-7.72604

> <CNNscore>
0.4230374396

> <CNNaffinity>
6.2346048355

> <CNN_VS>
2.6374711990

> <CNNaffinity_variance>
0.5803843737

$$$$
[H]OC1([H])C([H])([H])OC([H])([H])C([H])([H])C1(c1c([H])c([H])c(C(F)(F)F)c([H])c1F)N([H])C(=O)c1c([H])nn2c([H])c(C([H])([H])[H])c([H])nc12


 33 36  0  0  0  0  0  0  0  0999 V2000
   -0.1945  -52.4996  -24.6879 C   0  0  0  0  0  0  0  0  0  0  0  0
   -0.9571  -51.9103  -25.7268 C   0  0  0  0  0  0  0  0  0  0  0  0
   -0.9814  -52.5614  -27.1015 C   0  0  0  0  0  0  0  0  0  0  0  0
   -0.3125  -53.7160  -27.2787 O   0  0  0  0  0  0  0  0  0  0  0  0
   -0.2497  -54.5398  -26.2209 C   0  0  0  0  0  0  0  0  0  0  0  0
   -0.2227  -54.0404  -24.8525 C   0  0  0  0  0  0  0  0  0  0  0  0
   -1.3274  -54.5848  -24.1665 O   0  0  0  0  0  0  0  0  0  0  0  0
   -1.0862  -55.3689  -23.6595 H   0  0  0  0  0  0  0  0  0  0  0  0
    1.1825  -52.1941  -24.3381 C   0  0  0  0  0  0  0  0  0  0  0  0
    2.1519  -53.0770  -24.8454 C   0  0  0  0  0  0  0  0  0  0  0  0
    3.5036  -52.8517  -24.7226 C   0  0  0  0  0  0  0  0  0  0  0  0
    3.9972  -51.7548  -24.0974 C   0  0  0  0  0  0  0  0  0  0  0  0
    3.0651  -50.8530  -23.5806 C   0  0  0  0  0  0  0  0  0  0  0  0
    1.7129  -51.1102  -23.7234 C   0  0  0  0  0  0  0  0  0  0  0  0
    0.8843  -50.2229  -23.1696 F   0  0  0  0  0  0  0  0  0  0  0  0
    5.4508  -51.4887  -23.9986 C   0  0  0  0  0  0  0  0  0  0  0  0
    5.8048  -51.1803  -22.6797 F   0  0  0  0  0  0  0  0  0  0  0  0
    6.1278  -52.6010  -24.4414 F   0  0  0  0  0  0  0  0  0  0  0  0
    5.8747  -50.4695  -24.8482 F   0  0  0  0  0  0  0  0  0  0  0  0
   -0.2566  -53.0218  -22.2780 C   0  0  0  0  0  0  0  0  0  0  0  0
    0.8327  -53.6386  -22.4603 O   0  0  0  0  0  0  0  0  0  0  0  0
   -0.9065  -52.3511  -23.3767 N   0  0  0  0  0  0  0  0  0  0  0  0
   -1.7677  -51.8566  -23.2211 H   0  0  0  0  0  0  0  0  0  0  0  0
    0.6985  -50.5211  -16.1349 C   0  0  0  0  0  0  0  0  0  0  0  0
    0.3506  -51.1556  -17.4559 C   0  0  0  0  0  0  0  0  0  0  0  0
    1.0002  -50.8113  -18.6207 C   0  0  0  0  0  0  0  0  0  0  0  0
    0.6770  -51.3933  -19.7911 N   0  0  0  0  0  0  0  0  0  0  0  0
   -0.2840  -52.3201  -19.8383 C   0  0  0  0  0  0  0  0  0  0  0  0
   -0.7572  -53.0680  -20.9284 C   0  0  0  0  0  0  0  0  0  0  0  0
   -1.7208  -53.8620  -20.3836 C   0  0  0  0  0  0  0  0  0  0  0  0
   -1.8075  -53.6027  -19.0613 N   0  0  0  0  0  0  0  0  0  0  0  0
   -0.9275  -52.6668  -18.7323 N   0  0  0  0  0  0  0  0  0  0  0  0
   -0.6520  -52.1190  -17.5219 C   0  0  0  0  0  0  0  0  0  0  0  0
 24 25  1  0  0  0
 25 26  1  0  0  0
 26 27  2  0  0  0
 27 28  1  0  0  0
 28 29  2  0  0  0
 29 20  1  0  0  0
 20 21  2  0  0  0
 20 22  1  0  0  0
 22  1  1  0  0  0
  1  9  1  0  0  0
  9 10  2  0  0  0
 10 11  1  0  0  0
 11 12  2  0  0  0
 12 16  1  0  0  0
 16 17  1  0  0  0
 16 18  1  0  0  0
 16 19  1  0  0  0
 12 13  1  0  0  0
 13 14  2  0  0  0
 14 15  1  0  0  0
  1  2  1  0  0  0
  2  3  1  0  0  0
  3  4  1  0  0  0
  4  5  1  0  0  0
  5  6  1  0  0  0
  6  7  1  0  0  0
 29 30  1  0  0  0
 30 31  2  0  0  0
 31 32  1  0  0  0
 32 33  1  0  0  0
 33 25  2  0  0  0
 32 28  1  0  0  0
  6  1  1  0  0  0
 14  9  1  0  0  0
 22 23  1  0  0  0
  7  8  1  0  0  0
M  END
> <minimizedAffinity>
-8.41992

> <CNNscore>
0.2828053832

> <CNNaffinity>
6.4064683914

> <CNN_VS>
1.8117837906

> <CNNaffinity_variance>
0.2810568213

$$$$
[H]OC1([H])C([H])([H])OC([H])([H])C([H])([H])C1(c1c([H])c([H])c(C(F)(F)F)c([H])c1F)N([H])C(=O)c1c([H])nn2c([H])c(C([H])([H])[H])c([H])nc12


 33 36  0  0  0  0  0  0  0  0999 V2000
    3.6718  -49.4999  -21.0914 C   0  0  0  0  0  0  0  0  0  0  0  0
    3.4533  -48.4597  -22.0287 C   0  0  0  0  0  0  0  0  0  0  0  0
    4.5765  -47.4819  -22.3394 C   0  0  0  0  0  0  0  0  0  0  0  0
    5.7716  -47.6651  -21.7475 O   0  0  0  0  0  0  0  0  0  0  0  0
    6.1276  -48.9350  -21.4982 C   0  0  0  0  0  0  0  0  0  0  0  0
    5.1464  -49.9668  -21.1899 C   0  0  0  0  0  0  0  0  0  0  0  0
    5.2715  -50.9904  -22.1512 O   0  0  0  0  0  0  0  0  0  0  0  0
    5.8206  -51.7172  -21.8345 H   0  0  0  0  0  0  0  0  0  0  0  0
    3.3955  -49.4588  -19.6654 C   0  0  0  0  0  0  0  0  0  0  0  0
    3.7117  -50.6257  -18.9478 C   0  0  0  0  0  0  0  0  0  0  0  0
    3.6409  -50.7005  -17.5760 C   0  0  0  0  0  0  0  0  0  0  0  0
    3.2565  -49.6458  -16.8159 C   0  0  0  0  0  0  0  0  0  0  0  0
    2.9350  -48.4675  -17.4924 C   0  0  0  0  0  0  0  0  0  0  0  0
    3.0188  -48.4271  -18.8730 C   0  0  0  0  0  0  0  0  0  0  0  0
    2.6583  -47.2793  -19.4502 F   0  0  0  0  0  0  0  0  0  0  0  0
    3.2179  -49.7101  -15.3367 C   0  0  0  0  0  0  0  0  0  0  0  0
    3.8964  -50.8449  -14.8769 F   0  0  0  0  0  0  0  0  0  0  0  0
    3.7862  -48.5619  -14.8365 F   0  0  0  0  0  0  0  0  0  0  0  0
    1.9216  -49.7003  -14.8270 F   0  0  0  0  0  0  0  0  0  0  0  0
    1.5438  -50.5700  -21.7323 C   0  0  0  0  0  0  0  0  0  0  0  0
    1.0112  -49.4337  -21.5727 O   0  0  0  0  0  0  0  0  0  0  0  0
    2.9603  -50.7457  -21.5274 N   0  0  0  0  0  0  0  0  0  0  0  0
    3.3765  -51.6503  -21.6644 H   0  0  0  0  0  0  0  0  0  0  0  0
    0.1161  -54.9048  -26.6389 C   0  0  0  0  0  0  0  0  0  0  0  0
    0.3207  -54.0042  -25.4489 C   0  0  0  0  0  0  0  0  0  0  0  0
    1.3901  -53.1401  -25.3672 C   0  0  0  0  0  0  0  0  0  0  0  0
    1.5529  -52.3401  -24.2965 N   0  0  0  0  0  0  0  0  0  0  0  0
    0.6723  -52.3733  -23.2924 C   0  0  0  0  0  0  0  0  0  0  0  0
    0.6296  -51.6167  -22.1103 C   0  0  0  0  0  0  0  0  0  0  0  0
   -0.4914  -52.0640  -21.4787 C   0  0  0  0  0  0  0  0  0  0  0  0
   -1.0727  -53.0170  -22.2385 N   0  0  0  0  0  0  0  0  0  0  0  0
   -0.3637  -53.1989  -23.3444 N   0  0  0  0  0  0  0  0  0  0  0  0
   -0.5856  -54.0312  -24.3927 C   0  0  0  0  0  0  0  0  0  0  0  0
 24 25  1  0  0  0
 25 26  1  0  0  0
 26 27  2  0  0  0
 27 28  1  0  0  0
 28 29  2  0  0  0
 29 20  1  0  0  0
 20 21  2  0  0  0
 20 22  1  0  0  0
 22  1  1  0  0  0
  1  9  1  0  0  0
  9 10  2  0  0  0
 10 11  1  0  0  0
 11 12  2  0  0  0
 12 16  1  0  0  0
 16 17  1  0  0  0
 16 18  1  0  0  0
 16 19  1  0  0  0
 12 13  1  0  0  0
 13 14  2  0  0  0
 14 15  1  0  0  0
  1  2  1  0  0  0
  2  3  1  0  0  0
  3  4  1  0  0  0
  4  5  1  0  0  0
  5  6  1  0  0  0
  6  7  1  0  0  0
 29 30  1  0  0  0
 30 31  2  0  0  0
 31 32  1  0  0  0
 32 33  1  0  0  0
 33 25  2  0  0  0
 32 28  1  0  0  0
  6  1  1  0  0  0
 14  9  1  0  0  0
 22 23  1  0  0  0
  7  8  1  0  0  0
M  END
> <minimizedAffinity>
-6.71377

> <CNNscore>
0.1622612625

> <CNNaffinity>
5.8389983177

> <CNN_VS>
0.9474432468

> <CNNaffinity_variance>
0.8469740748

$$$$
[H]OC1([H])C([H])([H])OC([H])([H])C([H])([H])C1(c1c([H])c([H])c(C(F)(F)F)c([H])c1F)N([H])C(=O)c1c([H])nn2c([H])c(C([H])([H])[H])c([H])nc12


 33 36  0  0  0  0  0  0  0  0999 V2000
   -0.0736  -52.2953  -22.3408 C   0  0  0  0  0  0  0  0  0  0  0  0
   -1.2376  -52.0938  -21.5581 C   0  0  0  0  0  0  0  0  0  0  0  0
   -1.9065  -53.2845  -20.8881 C   0  0  0  0  0  0  0  0  0  0  0  0
   -1.3394  -54.4984  -21.0178 O   0  0  0  0  0  0  0  0  0  0  0  0
   -0.0002  -54.5273  -21.1044 C   0  0  0  0  0  0  0  0  0  0  0  0
    0.7582  -53.4471  -21.7213 C   0  0  0  0  0  0  0  0  0  0  0  0
    1.6562  -52.9392  -20.7606 O   0  0  0  0  0  0  0  0  0  0  0  0
    2.5362  -53.3231  -20.8514 H   0  0  0  0  0  0  0  0  0  0  0  0
   -0.0183  -52.5335  -23.7732 C   0  0  0  0  0  0  0  0  0  0  0  0
    0.8022  -51.6588  -24.5069 C   0  0  0  0  0  0  0  0  0  0  0  0
    1.0710  -51.8335  -25.8447 C   0  0  0  0  0  0  0  0  0  0  0  0
    0.5575  -52.8687  -26.5535 C   0  0  0  0  0  0  0  0  0  0  0  0
   -0.2622  -53.7606  -25.8592 C   0  0  0  0  0  0  0  0  0  0  0  0
   -0.5103  -53.5554  -24.5134 C   0  0  0  0  0  0  0  0  0  0  0  0
   -1.3338  -54.4270  -23.9281 F   0  0  0  0  0  0  0  0  0  0  0  0
    0.8769  -53.0828  -27.9838 C   0  0  0  0  0  0  0  0  0  0  0  0
    2.1845  -52.6675  -28.2621 F   0  0  0  0  0  0  0  0  0  0  0  0
    0.7142  -54.4180  -28.2706 F   0  0  0  0  0  0  0  0  0  0  0  0
   -0.0121  -52.4380  -28.8406 F   0  0  0  0  0  0  0  0  0  0  0  0
    0.7558  -50.4826  -20.8881 C   0  0  0  0  0  0  0  0  0  0  0  0
   -0.0709  -50.8978  -20.0253 O   0  0  0  0  0  0  0  0  0  0  0  0
    0.8737  -51.1469  -22.1626 N   0  0  0  0  0  0  0  0  0  0  0  0
    1.5390  -50.8151  -22.8392 H   0  0  0  0  0  0  0  0  0  0  0  0
    4.8857  -45.7372  -23.1964 C   0  0  0  0  0  0  0  0  0  0  0  0
    3.9597  -46.7242  -22.5353 C   0  0  0  0  0  0  0  0  0  0  0  0
    3.2975  -47.6939  -23.2554 C   0  0  0  0  0  0  0  0  0  0  0  0
    2.4769  -48.5696  -22.6449 N   0  0  0  0  0  0  0  0  0  0  0  0
    2.2938  -48.5101  -21.3229 C   0  0  0  0  0  0  0  0  0  0  0  0
    1.5187  -49.3291  -20.4862 C   0  0  0  0  0  0  0  0  0  0  0  0
    1.7256  -48.8117  -19.2431 C   0  0  0  0  0  0  0  0  0  0  0  0
    2.5686  -47.7612  -19.3396 N   0  0  0  0  0  0  0  0  0  0  0  0
    2.9161  -47.5839  -20.6070 N   0  0  0  0  0  0  0  0  0  0  0  0
    3.7547  -46.6715  -21.1595 C   0  0  0  0  0  0  0  0  0  0  0  0
 24 25  1  0  0  0
 25 26  1  0  0  0
 26 27  2  0  0  0
 27 28  1  0  0  0
 28 29  2  0  0  0
 29 20  1  0  0  0
 20 21  2  0  0  0
 20 22  1  0  0  0
 22  1  1  0  0  0
  1  9  1  0  0  0
  9 10  2  0  0  0
 10 11  1  0  0  0
 11 12  2  0  0  0
 12 16  1  0  0  0
 16 17  1  0  0  0
 16 18  1  0  0  0
 16 19  1  0  0  0
 12 13  1  0  0  0
 13 14  2  0  0  0
 14 15  1  0  0  0
  1  2  1  0  0  0
  2  3  1  0  0  0
  3  4  1  0  0  0
  4  5  1  0  0  0
  5  6  1  0  0  0
  6  7  1  0  0  0
 29 30  1  0  0  0
 30 31  2  0  0  0
 31 32  1  0  0  0
 32 33  1  0  0  0
 33 25  2  0  0  0
 32 28  1  0  0  0
  6  1  1  0  0  0
 14  9  1  0  0  0
 22 23  1  0  0  0
  7  8  1  0  0  0
M  END
> <minimizedAffinity>
-8.06106

> <CNNscore>
0.1567740440

> <CNNaffinity>
6.2779493332

> <CNN_VS>
0.9842194915

> <CNNaffinity_variance>
0.6235690117

$$$$
[H]OC1([H])C([H])([H])OC([H])([H])C([H])([H])C1(c1c([H])c([H])c(C(F)(F)F)c([H])c1F)N([H])C(=O)c1c([H])nn2c([H])c(C([H])([H])[H])c([H])nc12


 33 36  0  0  0  0  0  0  0  0999 V2000
   -0.0629  -52.2905  -22.2982 C   0  0  0  0  0  0  0  0  0  0  0  0
   -1.2308  -52.0646  -21.5280 C   0  0  0  0  0  0  0  0  0  0  0  0
   -1.9254  -53.2396  -20.8564 C   0  0  0  0  0  0  0  0  0  0  0  0
   -1.3771  -54.4635  -20.9725 O   0  0  0  0  0  0  0  0  0  0  0  0
   -0.0378  -54.5148  -21.0461 C   0  0  0  0  0  0  0  0  0  0  0  0
    0.7440  -53.4514  -21.6630 C   0  0  0  0  0  0  0  0  0  0  0  0
    1.6411  -52.9516  -20.6972 O   0  0  0  0  0  0  0  0  0  0  0  0
    2.5155  -53.3504  -20.7769 H   0  0  0  0  0  0  0  0  0  0  0  0
    0.0020  -52.5394  -23.7283 C   0  0  0  0  0  0  0  0  0  0  0  0
    0.8377  -51.6784  -24.4611 C   0  0  0  0  0  0  0  0  0  0  0  0
    1.1160  -51.8655  -25.7953 C   0  0  0  0  0  0  0  0  0  0  0  0
    0.5978  -52.9004  -26.5011 C   0  0  0  0  0  0  0  0  0  0  0  0
   -0.2369  -53.7788  -25.8076 C   0  0  0  0  0  0  0  0  0  0  0  0
   -0.4942  -53.5615  -24.4655 C   0  0  0  0  0  0  0  0  0  0  0  0
   -1.3316  -54.4204  -23.8811 F   0  0  0  0  0  0  0  0  0  0  0  0
    0.9271  -53.1279  -27.9271 C   0  0  0  0  0  0  0  0  0  0  0  0
    0.7609  -54.4775  -28.2599 F   0  0  0  0  0  0  0  0  0  0  0  0
    0.1121  -52.3290  -28.6946 F   0  0  0  0  0  0  0  0  0  0  0  0
    2.2169  -52.7190  -28.2580 F   0  0  0  0  0  0  0  0  0  0  0  0
    0.7570  -50.4575  -20.8656 C   0  0  0  0  0  0  0  0  0  0  0  0
   -0.1046  -50.8344  -20.0195 O   0  0  0  0  0  0  0  0  0  0  0  0
    0.9014  -51.1565  -22.1186 N   0  0  0  0  0  0  0  0  0  0  0  0
    1.5941  -50.8551  -22.7818 H   0  0  0  0  0  0  0  0  0  0  0  0
    3.9987  -47.7333  -15.6721 C   0  0  0  0  0  0  0  0  0  0  0  0
    3.3291  -48.2231  -16.9293 C   0  0  0  0  0  0  0  0  0  0  0  0
    2.7253  -49.4592  -16.9965 C   0  0  0  0  0  0  0  0  0  0  0  0
    2.1283  -49.8770  -18.1287 N   0  0  0  0  0  0  0  0  0  0  0  0
    2.1126  -49.0919  -19.2095 C   0  0  0  0  0  0  0  0  0  0  0  0
    1.5301  -49.3091  -20.4685 C   0  0  0  0  0  0  0  0  0  0  0  0
    1.8154  -48.1702  -21.1592 C   0  0  0  0  0  0  0  0  0  0  0  0
    2.5154  -47.3362  -20.3606 N   0  0  0  0  0  0  0  0  0  0  0  0
    2.6900  -47.8991  -19.1727 N   0  0  0  0  0  0  0  0  0  0  0  0
    3.3090  -47.4186  -18.0650 C   0  0  0  0  0  0  0  0  0  0  0  0
 24 25  1  0  0  0
 25 26  1  0  0  0
 26 27  2  0  0  0
 27 28  1  0  0  0
 28 29  2  0  0  0
 29 20  1  0  0  0
 20 21  2  0  0  0
 20 22  1  0  0  0
 22  1  1  0  0  0
  1  9  1  0  0  0
  9 10  2  0  0  0
 10 11  1  0  0  0
 11 12  2  0  0  0
 12 16  1  0  0  0
 16 17  1  0  0  0
 16 18  1  0  0  0
 16 19  1  0  0  0
 12 13  1  0  0  0
 13 14  2  0  0  0
 14 15  1  0  0  0
  1  2  1  0  0  0
  2  3  1  0  0  0
  3  4  1  0  0  0
  4  5  1  0  0  0
  5  6  1  0  0  0
  6  7  1  0  0  0
 29 30  1  0  0  0
 30 31  2  0  0  0
 31 32  1  0  0  0
 32 33  1  0  0  0
 33 25  2  0  0  0
 32 28  1  0  0  0
  6  1  1  0  0  0
 14  9  1  0  0  0
 22 23  1  0  0  0
  7  8  1  0  0  0
M  END
> <minimizedAffinity>
-7.91469

> <CNNscore>
0.1365404576

> <CNNaffinity>
6.1618447304

> <CNN_VS>
0.8413410783

> <CNNaffinity_variance>
0.7686573267

$$$$
[H]OC(=O)C([H])([H])C([H])([H])[C@@]([H])(C(=O)N1C([H])([H])C([H])([H])C([H])([H])[C@@]1([H])C(=O)N([H])[C@]([H])(C(=O)OC([H])([H])[H])C([H])([H])c1c([H])c([H])c([H])c([H])c1[H])N([H])C(=O)[C@@]([H])(N([H])C(=O)OC([H])([H])c1c([H])c([H])c([H])c([H])c1[H])[C@@]([H])(C([H])([H])[H])C([H])([H])C([H])([H])[H]


 51 53  0  0  0  0  0  0  0  0999 V2000
    4.5631  -50.5971  -23.3794 C   0  0  0  0  0  0  0  0  0  0  0  0
    4.8316  -49.2108  -23.1212 C   0  0  0  0  0  0  0  0  0  0  0  0
    5.7463  -49.1029  -22.1196 O   0  0  0  0  0  0  0  0  0  0  0  0
    4.4527  -47.9592  -23.5582 N   0  0  0  0  0  0  0  0  0  0  0  0
    5.0506  -46.7141  -22.9968 C   0  0  0  0  0  0  0  0  0  0  0  0
    3.7926  -45.9752  -22.5908 C   0  0  0  0  0  0  0  0  0  0  0  0
    2.8536  -46.2809  -23.7078 C   0  0  0  0  0  0  0  0  0  0  0  0
    3.4925  -47.4685  -24.4742 C   0  0  0  0  0  0  0  0  0  0  0  0
    4.0176  -46.8723  -25.7139 C   0  0  0  0  0  0  0  0  0  0  0  0
    3.8223  -45.6717  -25.9666 O   0  0  0  0  0  0  0  0  0  0  0  0
    4.7476  -47.6748  -26.6239 N   0  0  0  0  0  0  0  0  0  0  0  0
    4.9462  -48.6835  -26.4488 H   0  0  0  0  0  0  0  0  0  0  0  0
    5.2498  -47.0714  -27.8743 C   0  0  0  0  0  0  0  0  0  0  0  0
    5.0894  -48.0064  -28.9944 C   0  0  0  0  0  0  0  0  0  0  0  0
    4.3225  -49.0312  -28.8523 O   0  0  0  0  0  0  0  0  0  0  0  0
    5.6886  -47.8907  -30.2095 O   0  0  0  0  0  0  0  0  0  0  0  0
    5.8314  -49.0050  -31.1042 C   0  0  0  0  0  0  0  0  0  0  0  0
    6.6856  -46.7092  -27.6727 C   0  0  0  0  0  0  0  0  0  0  0  0
    7.5512  -47.7461  -27.1259 C   0  0  0  0  0  0  0  0  0  0  0  0
    8.3820  -48.4111  -28.0249 C   0  0  0  0  0  0  0  0  0  0  0  0
    9.2228  -49.3734  -27.5445 C   0  0  0  0  0  0  0  0  0  0  0  0
    9.2784  -49.7076  -26.2076 C   0  0  0  0  0  0  0  0  0  0  0  0
    8.4268  -49.0155  -25.3277 C   0  0  0  0  0  0  0  0  0  0  0  0
    7.5839  -48.0565  -25.7906 C   0  0  0  0  0  0  0  0  0  0  0  0
    2.5787  -51.2767  -21.9386 C   0  0  0  0  0  0  0  0  0  0  0  0
    3.4540  -51.7607  -21.1298 O   0  0  0  0  0  0  0  0  0  0  0  0
    3.0565  -50.6699  -23.1013 N   0  0  0  0  0  0  0  0  0  0  0  0
    2.4256  -50.2565  -23.8120 H   0  0  0  0  0  0  0  0  0  0  0  0
    1.1951  -51.4319  -21.5386 C   0  0  0  0  0  0  0  0  0  0  0  0
    0.4564  -52.3148  -22.4040 N   0  0  0  0  0  0  0  0  0  0  0  0
    0.1094  -52.1686  -23.7524 C   0  0  0  0  0  0  0  0  0  0  0  0
    0.3604  -51.2204  -24.5190 O   0  0  0  0  0  0  0  0  0  0  0  0
    0.1099  -53.2402  -21.9518 H   0  0  0  0  0  0  0  0  0  0  0  0
   -0.6305  -53.2075  -24.3821 O   0  0  0  0  0  0  0  0  0  0  0  0
   -0.0563  -54.0448  -25.3519 C   0  0  0  0  0  0  0  0  0  0  0  0
   -0.2104  -53.5884  -26.7280 C   0  0  0  0  0  0  0  0  0  0  0  0
   -1.3610  -52.9011  -27.1009 C   0  0  0  0  0  0  0  0  0  0  0  0
   -1.5777  -52.4469  -28.3761 C   0  0  0  0  0  0  0  0  0  0  0  0
   -0.6173  -52.6719  -29.3582 C   0  0  0  0  0  0  0  0  0  0  0  0
    0.5302  -53.3540  -28.9971 C   0  0  0  0  0  0  0  0  0  0  0  0
    0.7322  -53.8046  -27.7069 C   0  0  0  0  0  0  0  0  0  0  0  0
    0.9564  -51.8480  -20.1041 C   0  0  0  0  0  0  0  0  0  0  0  0
    0.5045  -50.7028  -19.2095 C   0  0  0  0  0  0  0  0  0  0  0  0
    0.2469  -54.2649  -20.0068 C   0  0  0  0  0  0  0  0  0  0  0  0
   -0.2136  -52.8240  -20.1131 C   0  0  0  0  0  0  0  0  0  0  0  0
    4.8409  -51.3391  -24.5916 C   0  0  0  0  0  0  0  0  0  0  0  0
    3.7335  -52.0310  -25.3177 C   0  0  0  0  0  0  0  0  0  0  0  0
    3.2475  -51.1981  -26.4788 C   0  0  0  0  0  0  0  0  0  0  0  0
    2.6987  -50.0953  -26.2685 O   0  0  0  0  0  0  0  0  0  0  0  0
    3.3889  -51.6142  -27.7994 O   0  0  0  0  0  0  0  0  0  0  0  0
    3.4806  -50.9900  -28.5663 H   0  0  0  0  0  0  0  0  0  0  0  0
 44 45  1  0  0  0
 45 42  1  0  0  0
 42 43  1  0  0  0
 42 29  1  0  0  0
 29 30  1  0  0  0
 30 31  1  0  0  0
 31 32  2  0  0  0
 31 34  1  0  0  0
 34 35  1  0  0  0
 35 36  1  0  0  0
 36 37  2  0  0  0
 37 38  1  0  0  0
 38 39  2  0  0  0
 39 40  1  0  0  0
 40 41  2  0  0  0
 29 25  1  0  0  0
 25 26  2  0  0  0
 25 27  1  0  0  0
 27  1  1  0  0  0
  1 46  1  0  0  0
 46 47  1  0  0  0
 47 48  1  0  0  0
 48 49  2  0  0  0
 48 50  1  0  0  0
  1  2  1  0  0  0
  2  3  2  0  0  0
  2  4  1  0  0  0
  4  5  1  0  0  0
  5  6  1  0  0  0
  6  7  1  0  0  0
  7  8  1  0  0  0
  8  9  1  0  0  0
  9 10  2  0  0  0
  9 11  1  0  0  0
 11 13  1  0  0  0
 13 18  1  0  0  0
 18 19  1  0  0  0
 19 20  2  0  0  0
 20 21  1  0  0  0
 21 22  2  0  0  0
 22 23  1  0  0  0
 23 24  2  0  0  0
 13 14  1  0  0  0
 14 15  2  0  0  0
 14 16  1  0  0  0
 16 17  1  0  0  0
 41 36  1  0  0  0
  8  4  1  0  0  0
 24 19  1  0  0  0
 30 33  1  0  0  0
 27 28  1  0  0  0
 50 51  1  0  0  0
 11 12  1  0  0  0
M  END
> <minimizedAffinity>
-6.78307

> <CNNscore>
0.2237664610

> <CNNaffinity>
6.9124174118

> <CNN_VS>
1.5467672348

> <CNNaffinity_variance>
0.2705637217

$$$$
[H]OC(=O)C([H])([H])C([H])([H])[C@@]([H])(C(=O)N1C([H])([H])C([H])([H])C([H])([H])[C@@]1([H])C(=O)N([H])[C@]([H])(C(=O)OC([H])([H])[H])C([H])([H])c1c([H])c([H])c([H])c([H])c1[H])N([H])C(=O)[C@@]([H])(N([H])C(=O)OC([H])([H])c1c([H])c([H])c([H])c([H])c1[H])[C@@]([H])(C([H])([H])[H])C([H])([H])C([H])([H])[H]


 51 53  0  0  0  0  0  0  0  0999 V2000
    1.1175  -52.0394  -21.5027 C   0  0  0  0  0  0  0  0  0  0  0  0
    1.9074  -51.7090  -20.3506 C   0  0  0  0  0  0  0  0  0  0  0  0
    2.6105  -52.8034  -19.9513 O   0  0  0  0  0  0  0  0  0  0  0  0
    2.1727  -50.6419  -19.5188 N   0  0  0  0  0  0  0  0  0  0  0  0
    3.1480  -50.7417  -18.3955 C   0  0  0  0  0  0  0  0  0  0  0  0
    2.2789  -50.2740  -17.2469 C   0  0  0  0  0  0  0  0  0  0  0  0
    1.4880  -49.1681  -17.8588 C   0  0  0  0  0  0  0  0  0  0  0  0
    1.6710  -49.3251  -19.3911 C   0  0  0  0  0  0  0  0  0  0  0  0
    2.5882  -48.2373  -19.7699 C   0  0  0  0  0  0  0  0  0  0  0  0
    2.8237  -47.3087  -18.9790 O   0  0  0  0  0  0  0  0  0  0  0  0
    3.2028  -48.2501  -21.0455 N   0  0  0  0  0  0  0  0  0  0  0  0
    3.0444  -49.0140  -21.7374 H   0  0  0  0  0  0  0  0  0  0  0  0
    4.1030  -47.1423  -21.4227 C   0  0  0  0  0  0  0  0  0  0  0  0
    3.4639  -46.2826  -22.4263 C   0  0  0  0  0  0  0  0  0  0  0  0
    2.8771  -46.8251  -23.4361 O   0  0  0  0  0  0  0  0  0  0  0  0
    3.4266  -44.9238  -22.3911 O   0  0  0  0  0  0  0  0  0  0  0  0
    4.5482  -44.1360  -21.9621 C   0  0  0  0  0  0  0  0  0  0  0  0
    5.3734  -47.7315  -21.9444 C   0  0  0  0  0  0  0  0  0  0  0  0
    6.3801  -48.0952  -20.9556 C   0  0  0  0  0  0  0  0  0  0  0  0
    7.2729  -49.1047  -21.3086 C   0  0  0  0  0  0  0  0  0  0  0  0
    8.2438  -49.4563  -20.4155 C   0  0  0  0  0  0  0  0  0  0  0  0
    8.3710  -48.8499  -19.1834 C   0  0  0  0  0  0  0  0  0  0  0  0
    7.4536  -47.8339  -18.8602 C   0  0  0  0  0  0  0  0  0  0  0  0
    6.4815  -47.4737  -19.7375 C   0  0  0  0  0  0  0  0  0  0  0  0
    2.5142  -51.1019  -23.4122 C   0  0  0  0  0  0  0  0  0  0  0  0
    1.8606  -50.0096  -23.2268 O   0  0  0  0  0  0  0  0  0  0  0  0
    2.1994  -52.1781  -22.5811 N   0  0  0  0  0  0  0  0  0  0  0  0
    2.6707  -53.0977  -22.6601 H   0  0  0  0  0  0  0  0  0  0  0  0
    3.4977  -51.0767  -24.4755 C   0  0  0  0  0  0  0  0  0  0  0  0
    2.9117  -51.2024  -25.7850 N   0  0  0  0  0  0  0  0  0  0  0  0
    2.9911  -52.2520  -26.7081 C   0  0  0  0  0  0  0  0  0  0  0  0
    3.6045  -53.3304  -26.6048 O   0  0  0  0  0  0  0  0  0  0  0  0
    2.3132  -50.3590  -26.1188 H   0  0  0  0  0  0  0  0  0  0  0  0
    2.3030  -52.1239  -27.9464 O   0  0  0  0  0  0  0  0  0  0  0  0
    1.3676  -53.0780  -28.3777 C   0  0  0  0  0  0  0  0  0  0  0  0
   -0.0165  -52.7861  -28.0246 C   0  0  0  0  0  0  0  0  0  0  0  0
   -0.3396  -52.4689  -26.7091 C   0  0  0  0  0  0  0  0  0  0  0  0
   -1.6184  -52.1886  -26.3024 C   0  0  0  0  0  0  0  0  0  0  0  0
   -2.6561  -52.2166  -27.2296 C   0  0  0  0  0  0  0  0  0  0  0  0
   -2.3449  -52.5306  -28.5400 C   0  0  0  0  0  0  0  0  0  0  0  0
   -1.0503  -52.8103  -28.9325 C   0  0  0  0  0  0  0  0  0  0  0  0
    4.4470  -49.8990  -24.4806 C   0  0  0  0  0  0  0  0  0  0  0  0
    5.9116  -50.3034  -24.5666 C   0  0  0  0  0  0  0  0  0  0  0  0
    5.3656  -48.2632  -26.1641 C   0  0  0  0  0  0  0  0  0  0  0  0
    4.1797  -49.1181  -25.7613 C   0  0  0  0  0  0  0  0  0  0  0  0
    0.1839  -53.1369  -21.6476 C   0  0  0  0  0  0  0  0  0  0  0  0
   -0.4409  -53.4197  -22.9751 C   0  0  0  0  0  0  0  0  0  0  0  0
   -1.2277  -54.7071  -22.9369 C   0  0  0  0  0  0  0  0  0  0  0  0
   -1.8589  -55.0217  -21.9054 O   0  0  0  0  0  0  0  0  0  0  0  0
   -1.2820  -55.5746  -24.0240 O   0  0  0  0  0  0  0  0  0  0  0  0
   -2.0538  -56.1694  -24.2154 H   0  0  0  0  0  0  0  0  0  0  0  0
 44 45  1  0  0  0
 45 42  1  0  0  0
 42 43  1  0  0  0
 42 29  1  0  0  0
 29 30  1  0  0  0
 30 31  1  0  0  0
 31 32  2  0  0  0
 31 34  1  0  0  0
 34 35  1  0  0  0
 35 36  1  0  0  0
 36 37  2  0  0  0
 37 38  1  0  0  0
 38 39  2  0  0  0
 39 40  1  0  0  0
 40 41  2  0  0  0
 29 25  1  0  0  0
 25 26  2  0  0  0
 25 27  1  0  0  0
 27  1  1  0  0  0
  1 46  1  0  0  0
 46 47  1  0  0  0
 47 48  1  0  0  0
 48 49  2  0  0  0
 48 50  1  0  0  0
  1  2  1  0  0  0
  2  3  2  0  0  0
  2  4  1  0  0  0
  4  5  1  0  0  0
  5  6  1  0  0  0
  6  7  1  0  0  0
  7  8  1  0  0  0
  8  9  1  0  0  0
  9 10  2  0  0  0
  9 11  1  0  0  0
 11 13  1  0  0  0
 13 18  1  0  0  0
 18 19  1  0  0  0
 19 20  2  0  0  0
 20 21  1  0  0  0
 21 22  2  0  0  0
 22 23  1  0  0  0
 23 24  2  0  0  0
 13 14  1  0  0  0
 14 15  2  0  0  0
 14 16  1  0  0  0
 16 17  1  0  0  0
 41 36  1  0  0  0
  8  4  1  0  0  0
 24 19  1  0  0  0
 30 33  1  0  0  0
 27 28  1  0  0  0
 50 51  1  0  0  0
 11 12  1  0  0  0
M  END
> <minimizedAffinity>
-7.66511

> <CNNscore>
0.1684104800

> <CNNaffinity>
6.7657189369

> <CNN_VS>
1.1394180059

> <CNNaffinity_variance>
0.4108380377

$$$$
[H]OC(=O)C([H])([H])C([H])([H])[C@@]([H])(C(=O)N1C([H])([H])C([H])([H])C([H])([H])[C@@]1([H])C(=O)N([H])[C@]([H])(C(=O)OC([H])([H])[H])C([H])([H])c1c([H])c([H])c([H])c([H])c1[H])N([H])C(=O)[C@@]([H])(N([H])C(=O)OC([H])([H])c1c([H])c([H])c([H])c([H])c1[H])[C@@]([H])(C([H])([H])[H])C([H])([H])C([H])([H])[H]


 51 53  0  0  0  0  0  0  0  0999 V2000
    2.9988  -47.1109  -23.2779 C   0  0  0  0  0  0  0  0  0  0  0  0
    4.0790  -47.7627  -23.9626 C   0  0  0  0  0  0  0  0  0  0  0  0
    5.1815  -47.7764  -23.1651 O   0  0  0  0  0  0  0  0  0  0  0  0
    4.3555  -48.3695  -25.1694 N   0  0  0  0  0  0  0  0  0  0  0  0
    5.6853  -48.9786  -25.4587 C   0  0  0  0  0  0  0  0  0  0  0  0
    6.0269  -48.2683  -26.7519 C   0  0  0  0  0  0  0  0  0  0  0  0
    4.7154  -48.2191  -27.4594 C   0  0  0  0  0  0  0  0  0  0  0  0
    3.6498  -48.5506  -26.3822 C   0  0  0  0  0  0  0  0  0  0  0  0
    3.2237  -49.9258  -26.6907 C   0  0  0  0  0  0  0  0  0  0  0  0
    3.5562  -50.4625  -27.7606 O   0  0  0  0  0  0  0  0  0  0  0  0
    2.4276  -50.6388  -25.7617 N   0  0  0  0  0  0  0  0  0  0  0  0
    2.1341  -50.2338  -24.8466 H   0  0  0  0  0  0  0  0  0  0  0  0
    1.9877  -52.0089  -26.0919 C   0  0  0  0  0  0  0  0  0  0  0  0
    0.5422  -52.0350  -26.3462 C   0  0  0  0  0  0  0  0  0  0  0  0
   -0.1986  -51.1021  -25.8570 O   0  0  0  0  0  0  0  0  0  0  0  0
   -0.1127  -52.9777  -27.0753 O   0  0  0  0  0  0  0  0  0  0  0  0
   -1.2571  -52.6640  -27.8843 C   0  0  0  0  0  0  0  0  0  0  0  0
    2.3531  -52.9029  -24.9516 C   0  0  0  0  0  0  0  0  0  0  0  0
    3.2885  -52.3648  -23.9723 C   0  0  0  0  0  0  0  0  0  0  0  0
    4.6432  -52.4404  -24.2882 C   0  0  0  0  0  0  0  0  0  0  0  0
    5.5473  -51.9259  -23.4041 C   0  0  0  0  0  0  0  0  0  0  0  0
    5.1681  -51.3369  -22.2161 C   0  0  0  0  0  0  0  0  0  0  0  0
    3.7924  -51.2764  -21.9295 C   0  0  0  0  0  0  0  0  0  0  0  0
    2.8809  -51.7848  -22.7984 C   0  0  0  0  0  0  0  0  0  0  0  0
    2.1668  -47.9242  -21.0147 C   0  0  0  0  0  0  0  0  0  0  0  0
    0.9901  -47.8553  -21.5298 O   0  0  0  0  0  0  0  0  0  0  0  0
    3.2392  -47.5651  -21.8327 N   0  0  0  0  0  0  0  0  0  0  0  0
    4.2213  -47.5856  -21.5025 H   0  0  0  0  0  0  0  0  0  0  0  0
    2.2279  -48.3630  -19.6355 C   0  0  0  0  0  0  0  0  0  0  0  0
    1.8975  -49.7555  -19.4745 N   0  0  0  0  0  0  0  0  0  0  0  0
    1.1445  -50.3913  -18.4802 C   0  0  0  0  0  0  0  0  0  0  0  0
    0.5867  -49.8864  -17.4884 O   0  0  0  0  0  0  0  0  0  0  0  0
    2.2870  -50.4256  -20.2363 H   0  0  0  0  0  0  0  0  0  0  0  0
    0.9617  -51.7997  -18.5598 O   0  0  0  0  0  0  0  0  0  0  0  0
   -0.2688  -52.3688  -18.9249 C   0  0  0  0  0  0  0  0  0  0  0  0
   -0.3455  -52.8366  -20.3037 C   0  0  0  0  0  0  0  0  0  0  0  0
   -0.5438  -51.9205  -21.3318 C   0  0  0  0  0  0  0  0  0  0  0  0
   -0.6316  -52.2868  -22.6499 C   0  0  0  0  0  0  0  0  0  0  0  0
   -0.5204  -53.6296  -22.9989 C   0  0  0  0  0  0  0  0  0  0  0  0
   -0.3229  -54.5479  -21.9839 C   0  0  0  0  0  0  0  0  0  0  0  0
   -0.2365  -54.1611  -20.6605 C   0  0  0  0  0  0  0  0  0  0  0  0
    3.5207  -48.0839  -18.9016 C   0  0  0  0  0  0  0  0  0  0  0  0
    4.7625  -48.4068  -19.7201 C   0  0  0  0  0  0  0  0  0  0  0  0
    4.9096  -45.9909  -19.1130 C   0  0  0  0  0  0  0  0  0  0  0  0
    3.5842  -46.5793  -18.6694 C   0  0  0  0  0  0  0  0  0  0  0  0
    2.6860  -45.6969  -23.2669 C   0  0  0  0  0  0  0  0  0  0  0  0
    1.8054  -45.1155  -24.3247 C   0  0  0  0  0  0  0  0  0  0  0  0
    2.4710  -45.1841  -25.6775 C   0  0  0  0  0  0  0  0  0  0  0  0
    3.6434  -44.7746  -25.8171 O   0  0  0  0  0  0  0  0  0  0  0  0
    1.8219  -45.6954  -26.7975 O   0  0  0  0  0  0  0  0  0  0  0  0
    2.2924  -46.1354  -27.5532 H   0  0  0  0  0  0  0  0  0  0  0  0
 44 45  1  0  0  0
 45 42  1  0  0  0
 42 43  1  0  0  0
 42 29  1  0  0  0
 29 30  1  0  0  0
 30 31  1  0  0  0
 31 32  2  0  0  0
 31 34  1  0  0  0
 34 35  1  0  0  0
 35 36  1  0  0  0
 36 37  2  0  0  0
 37 38  1  0  0  0
 38 39  2  0  0  0
 39 40  1  0  0  0
 40 41  2  0  0  0
 29 25  1  0  0  0
 25 26  2  0  0  0
 25 27  1  0  0  0
 27  1  1  0  0  0
  1 46  1  0  0  0
 46 47  1  0  0  0
 47 48  1  0  0  0
 48 49  2  0  0  0
 48 50  1  0  0  0
  1  2  1  0  0  0
  2  3  2  0  0  0
  2  4  1  0  0  0
  4  5  1  0  0  0
  5  6  1  0  0  0
  6  7  1  0  0  0
  7  8  1  0  0  0
  8  9  1  0  0  0
  9 10  2  0  0  0
  9 11  1  0  0  0
 11 13  1  0  0  0
 13 18  1  0  0  0
 18 19  1  0  0  0
 19 20  2  0  0  0
 20 21  1  0  0  0
 21 22  2  0  0  0
 22 23  1  0  0  0
 23 24  2  0  0  0
 13 14  1  0  0  0
 14 15  2  0  0  0
 14 16  1  0  0  0
 16 17  1  0  0  0
 41 36  1  0  0  0
  8  4  1  0  0  0
 24 19  1  0  0  0
 30 33  1  0  0  0
 27 28  1  0  0  0
 50 51  1  0  0  0
 11 12  1  0  0  0
M  END
> <minimizedAffinity>
-6.91637

> <CNNscore>
0.1629990488

> <CNNaffinity>
6.3825922012

> <CNN_VS>
1.0403565168

> <CNNaffinity_variance>
1.0304836035

$$$$
[H]OC(=O)C([H])([H])C([H])([H])[C@@]([H])(C(=O)N1C([H])([H])C([H])([H])C([H])([H])[C@@]1([H])C(=O)N([H])[C@]([H])(C(=O)OC([H])([H])[H])C([H])([H])c1c([H])c([H])c([H])c([H])c1[H])N([H])C(=O)[C@@]([H])(N([H])C(=O)OC([H])([H])c1c([H])c([H])c([H])c([H])c1[H])[C@@]([H])(C([H])([H])[H])C([H])([H])C([H])([H])[H]


 51 53  0  0  0  0  0  0  0  0999 V2000
    4.6214  -49.9399  -20.1488 C   0  0  0  0  0  0  0  0  0  0  0  0
    4.2972  -48.8290  -19.2995 C   0  0  0  0  0  0  0  0  0  0  0  0
    4.8140  -47.6862  -19.8273 O   0  0  0  0  0  0  0  0  0  0  0  0
    3.6384  -48.5543  -18.1199 N   0  0  0  0  0  0  0  0  0  0  0  0
    3.5091  -47.1650  -17.5945 C   0  0  0  0  0  0  0  0  0  0  0  0
    4.0685  -47.3553  -16.2001 C   0  0  0  0  0  0  0  0  0  0  0  0
    3.5242  -48.6855  -15.8034 C   0  0  0  0  0  0  0  0  0  0  0  0
    3.0162  -49.3349  -17.1172 C   0  0  0  0  0  0  0  0  0  0  0  0
    1.5490  -49.2433  -17.0349 C   0  0  0  0  0  0  0  0  0  0  0  0
    0.8525  -49.3669  -18.0562 O   0  0  0  0  0  0  0  0  0  0  0  0
    0.9297  -49.0101  -15.7830 N   0  0  0  0  0  0  0  0  0  0  0  0
    1.4723  -48.9114  -14.8979 H   0  0  0  0  0  0  0  0  0  0  0  0
   -0.5409  -48.8977  -15.7164 C   0  0  0  0  0  0  0  0  0  0  0  0
   -0.9301  -47.5966  -15.1593 C   0  0  0  0  0  0  0  0  0  0  0  0
   -2.0984  -47.1240  -15.4242 O   0  0  0  0  0  0  0  0  0  0  0  0
   -0.1530  -46.8169  -14.3611 O   0  0  0  0  0  0  0  0  0  0  0  0
    0.3339  -45.5330  -14.7819 C   0  0  0  0  0  0  0  0  0  0  0  0
   -1.0564  -50.0219  -14.8776 C   0  0  0  0  0  0  0  0  0  0  0  0
   -2.2389  -50.7166  -15.3700 C   0  0  0  0  0  0  0  0  0  0  0  0
   -2.0234  -51.8330  -16.1751 C   0  0  0  0  0  0  0  0  0  0  0  0
   -3.1080  -52.5219  -16.6363 C   0  0  0  0  0  0  0  0  0  0  0  0
   -4.4023  -52.1535  -16.3341 C   0  0  0  0  0  0  0  0  0  0  0  0
   -4.5833  -51.0223  -15.5180 C   0  0  0  0  0  0  0  0  0  0  0  0
   -3.5144  -50.3258  -15.0524 C   0  0  0  0  0  0  0  0  0  0  0  0
    2.6027  -51.4615  -20.4407 C   0  0  0  0  0  0  0  0  0  0  0  0
    3.2055  -52.2573  -19.6295 O   0  0  0  0  0  0  0  0  0  0  0  0
    3.2510  -50.2662  -20.7556 N   0  0  0  0  0  0  0  0  0  0  0  0
    2.8436  -49.5668  -21.4027 H   0  0  0  0  0  0  0  0  0  0  0  0
    1.3188  -51.9160  -20.9340 C   0  0  0  0  0  0  0  0  0  0  0  0
    1.3334  -52.2171  -22.3423 N   0  0  0  0  0  0  0  0  0  0  0  0
    1.4893  -51.3647  -23.4419 C   0  0  0  0  0  0  0  0  0  0  0  0
    1.6460  -50.1297  -23.4492 O   0  0  0  0  0  0  0  0  0  0  0  0
    1.2047  -53.2640  -22.6040 H   0  0  0  0  0  0  0  0  0  0  0  0
    1.4713  -51.9273  -24.7482 O   0  0  0  0  0  0  0  0  0  0  0  0
    0.6715  -53.0361  -25.0677 C   0  0  0  0  0  0  0  0  0  0  0  0
   -0.1557  -52.8757  -26.2575 C   0  0  0  0  0  0  0  0  0  0  0  0
   -1.4452  -52.3677  -26.1366 C   0  0  0  0  0  0  0  0  0  0  0  0
   -2.2816  -52.1943  -27.2088 C   0  0  0  0  0  0  0  0  0  0  0  0
   -1.8426  -52.5348  -28.4850 C   0  0  0  0  0  0  0  0  0  0  0  0
   -0.5621  -53.0403  -28.6155 C   0  0  0  0  0  0  0  0  0  0  0  0
    0.2677  -53.2084  -27.5238 C   0  0  0  0  0  0  0  0  0  0  0  0
    0.6926  -53.0788  -20.1966 C   0  0  0  0  0  0  0  0  0  0  0  0
   -0.2619  -52.6504  -19.0914 C   0  0  0  0  0  0  0  0  0  0  0  0
   -1.6401  -53.8229  -20.7960 C   0  0  0  0  0  0  0  0  0  0  0  0
   -0.1784  -53.8245  -21.2000 C   0  0  0  0  0  0  0  0  0  0  0  0
    5.6115  -49.9843  -21.2047 C   0  0  0  0  0  0  0  0  0  0  0  0
    5.1913  -49.8542  -22.6326 C   0  0  0  0  0  0  0  0  0  0  0  0
    5.1945  -51.1979  -23.3198 C   0  0  0  0  0  0  0  0  0  0  0  0
    4.8690  -51.2836  -24.5232 O   0  0  0  0  0  0  0  0  0  0  0  0
    5.5532  -52.3680  -22.6570 O   0  0  0  0  0  0  0  0  0  0  0  0
    5.9618  -53.1528  -23.1079 H   0  0  0  0  0  0  0  0  0  0  0  0
 44 45  1  0  0  0
 45 42  1  0  0  0
 42 43  1  0  0  0
 42 29  1  0  0  0
 29 30  1  0  0  0
 30 31  1  0  0  0
 31 32  2  0  0  0
 31 34  1  0  0  0
 34 35  1  0  0  0
 35 36  1  0  0  0
 36 37  2  0  0  0
 37 38  1  0  0  0
 38 39  2  0  0  0
 39 40  1  0  0  0
 40 41  2  0  0  0
 29 25  1  0  0  0
 25 26  2  0  0  0
 25 27  1  0  0  0
 27  1  1  0  0  0
  1 46  1  0  0  0
 46 47  1  0  0  0
 47 48  1  0  0  0
 48 49  2  0  0  0
 48 50  1  0  0  0
  1  2  1  0  0  0
  2  3  2  0  0  0
  2  4  1  0  0  0
  4  5  1  0  0  0
  5  6  1  0  0  0
  6  7  1  0  0  0
  7  8  1  0  0  0
  8  9  1  0  0  0
  9 10  2  0  0  0
  9 11  1  0  0  0
 11 13  1  0  0  0
 13 18  1  0  0  0
 18 19  1  0  0  0
 19 20  2  0  0  0
 20 21  1  0  0  0
 21 22  2  0  0  0
 22 23  1  0  0  0
 23 24  2  0  0  0
 13 14  1  0  0  0
 14 15  2  0  0  0
 14 16  1  0  0  0
 16 17  1  0  0  0
 41 36  1  0  0  0
  8  4  1  0  0  0
 24 19  1  0  0  0
 30 33  1  0  0  0
 27 28  1  0  0  0
 50 51  1  0  0  0
 11 12  1  0  0  0
M  END
> <minimizedAffinity>
-7.73433

> <CNNscore>
0.1613630652

> <CNNaffinity>
6.6333646774

> <CNN_VS>
1.0703800917

> <CNNaffinity_variance>
0.3406375349

$$$$
[H]OC(=O)C([H])([H])C([H])([H])[C@@]([H])(C(=O)N1C([H])([H])C([H])([H])C([H])([H])[C@@]1([H])C(=O)N([H])[C@]([H])(C(=O)OC([H])([H])[H])C([H])([H])c1c([H])c([H])c([H])c([H])c1[H])N([H])C(=O)[C@@]([H])(N([H])C(=O)OC([H])([H])c1c([H])c([H])c([H])c([H])c1[H])[C@@]([H])(C([H])([H])[H])C([H])([H])C([H])([H])[H]


 51 53  0  0  0  0  0  0  0  0999 V2000
    3.6750  -49.6865  -23.3568 C   0  0  0  0  0  0  0  0  0  0  0  0
    3.6214  -48.4112  -22.7002 C   0  0  0  0  0  0  0  0  0  0  0  0
    2.8230  -47.5673  -23.4087 O   0  0  0  0  0  0  0  0  0  0  0  0
    4.1261  -47.7699  -21.5889 N   0  0  0  0  0  0  0  0  0  0  0  0
    3.7553  -46.3652  -21.2534 C   0  0  0  0  0  0  0  0  0  0  0  0
    5.1332  -45.7483  -21.1337 C   0  0  0  0  0  0  0  0  0  0  0  0
    5.9184  -46.8200  -20.4568 C   0  0  0  0  0  0  0  0  0  0  0  0
    5.0582  -48.1049  -20.5786 C   0  0  0  0  0  0  0  0  0  0  0  0
    4.5102  -48.3156  -19.2283 C   0  0  0  0  0  0  0  0  0  0  0  0
    5.0570  -47.7988  -18.2397 O   0  0  0  0  0  0  0  0  0  0  0  0
    3.3538  -49.1147  -19.0572 N   0  0  0  0  0  0  0  0  0  0  0  0
    2.8546  -49.5587  -19.8579 H   0  0  0  0  0  0  0  0  0  0  0  0
    2.8266  -49.3372  -17.6962 C   0  0  0  0  0  0  0  0  0  0  0  0
    3.0484  -50.7279  -17.2824 C   0  0  0  0  0  0  0  0  0  0  0  0
    3.5177  -51.5701  -18.1361 O   0  0  0  0  0  0  0  0  0  0  0  0
    2.8020  -51.2302  -16.0430 O   0  0  0  0  0  0  0  0  0  0  0  0
    3.8455  -51.4419  -15.0792 C   0  0  0  0  0  0  0  0  0  0  0  0
    1.3711  -48.9988  -17.6995 C   0  0  0  0  0  0  0  0  0  0  0  0
    0.7265  -48.8701  -16.3989 C   0  0  0  0  0  0  0  0  0  0  0  0
   -0.4237  -49.6275  -16.1888 C   0  0  0  0  0  0  0  0  0  0  0  0
   -1.0416  -49.5491  -14.9740 C   0  0  0  0  0  0  0  0  0  0  0  0
   -0.5691  -48.7511  -13.9532 C   0  0  0  0  0  0  0  0  0  0  0  0
    0.5950  -48.0009  -14.1992 C   0  0  0  0  0  0  0  0  0  0  0  0
    1.2204  -48.0673  -15.4029 C   0  0  0  0  0  0  0  0  0  0  0  0
    2.1039  -51.2009  -22.0476 C   0  0  0  0  0  0  0  0  0  0  0  0
    3.1551  -51.5807  -21.4109 O   0  0  0  0  0  0  0  0  0  0  0  0
    2.2798  -50.2440  -23.0484 N   0  0  0  0  0  0  0  0  0  0  0  0
    1.4917  -49.8820  -23.6159 H   0  0  0  0  0  0  0  0  0  0  0  0
    0.8610  -51.8268  -21.6452 C   0  0  0  0  0  0  0  0  0  0  0  0
    0.3516  -52.7467  -22.6293 N   0  0  0  0  0  0  0  0  0  0  0  0
   -0.0938  -52.5097  -23.9352 C   0  0  0  0  0  0  0  0  0  0  0  0
   -0.1576  -51.4281  -24.5482 O   0  0  0  0  0  0  0  0  0  0  0  0
    0.3007  -53.7879  -22.3224 H   0  0  0  0  0  0  0  0  0  0  0  0
   -0.5484  -53.6122  -24.7106 O   0  0  0  0  0  0  0  0  0  0  0  0
    0.2393  -54.1821  -25.7235 C   0  0  0  0  0  0  0  0  0  0  0  0
   -0.0260  -53.6789  -27.0659 C   0  0  0  0  0  0  0  0  0  0  0  0
   -1.2031  -52.9823  -27.3202 C   0  0  0  0  0  0  0  0  0  0  0  0
   -1.5226  -52.4849  -28.5571 C   0  0  0  0  0  0  0  0  0  0  0  0
   -0.6451  -52.6732  -29.6211 C   0  0  0  0  0  0  0  0  0  0  0  0
    0.5278  -53.3642  -29.3781 C   0  0  0  0  0  0  0  0  0  0  0  0
    0.8339  -53.8585  -28.1250 C   0  0  0  0  0  0  0  0  0  0  0  0
    0.8635  -52.5123  -20.2968 C   0  0  0  0  0  0  0  0  0  0  0  0
    0.1082  -51.7403  -19.2246 C   0  0  0  0  0  0  0  0  0  0  0  0
   -1.3603  -53.6721  -20.0440 C   0  0  0  0  0  0  0  0  0  0  0  0
    0.0911  -53.8157  -20.4593 C   0  0  0  0  0  0  0  0  0  0  0  0
    3.9759  -49.9508  -24.7485 C   0  0  0  0  0  0  0  0  0  0  0  0
    2.8736  -50.2608  -25.7083 C   0  0  0  0  0  0  0  0  0  0  0  0
    3.1715  -51.5220  -26.4818 C   0  0  0  0  0  0  0  0  0  0  0  0
    3.2994  -52.6084  -25.8778 O   0  0  0  0  0  0  0  0  0  0  0  0
    3.3109  -51.5262  -27.8667 O   0  0  0  0  0  0  0  0  0  0  0  0
    3.0961  -52.3087  -28.4391 H   0  0  0  0  0  0  0  0  0  0  0  0
 44 45  1  0  0  0
 45 42  1  0  0  0
 42 43  1  0  0  0
 42 29  1  0  0  0
 29 30  1  0  0  0
 30 31  1  0  0  0
 31 32  2  0  0  0
 31 34  1  0  0  0
 34 35  1  0  0  0
 35 36  1  0  0  0
 36 37  2  0  0  0
 37 38  1  0  0  0
 38 39  2  0  0  0
 39 40  1  0  0  0
 40 41  2  0  0  0
 29 25  1  0  0  0
 25 26  2  0  0  0
 25 27  1  0  0  0
 27  1  1  0  0  0
  1 46  1  0  0  0
 46 47  1  0  0  0
 47 48  1  0  0  0
 48 49  2  0  0  0
 48 50  1  0  0  0
  1  2  1  0  0  0
  2  3  2  0  0  0
  2  4  1  0  0  0
  4  5  1  0  0  0
  5  6  1  0  0  0
  6  7  1  0  0  0
  7  8  1  0  0  0
  8  9  1  0  0  0
  9 10  2  0  0  0
  9 11  1  0  0  0
 11 13  1  0  0  0
 13 18  1  0  0  0
 18 19  1  0  0  0
 19 20  2  0  0  0
 20 21  1  0  0  0
 21 22  2  0  0  0
 22 23  1  0  0  0
 23 24  2  0  0  0
 13 14  1  0  0  0
 14 15  2  0  0  0
 14 16  1  0  0  0
 16 17  1  0  0  0
 41 36  1  0  0  0
  8  4  1  0  0  0
 24 19  1  0  0  0
 30 33  1  0  0  0
 27 28  1  0  0  0
 50 51  1  0  0  0
 11 12  1  0  0  0
M  END
> <minimizedAffinity>
-6.91636

> <CNNscore>
0.1612408459

> <CNNaffinity>
6.9995203018

> <CNN_VS>
1.1286085844

> <CNNaffinity_variance>
0.1044028625

$$$$
[H]OC(=O)C([H])([H])C([H])([H])[C@@]([H])(C(=O)N1C([H])([H])C([H])([H])C([H])([H])[C@@]1([H])C(=O)N([H])[C@]([H])(C(=O)OC([H])([H])[H])C([H])([H])c1c([H])c([H])c([H])c([H])c1[H])N([H])C(=O)[C@@]([H])(N([H])C(=O)OC([H])([H])c1c([H])c([H])c([H])c([H])c1[H])[C@@]([H])(C([H])([H])[H])C([H])([H])C([H])([H])[H]


 51 53  0  0  0  0  0  0  0  0999 V2000
    4.4581  -49.8900  -23.5611 C   0  0  0  0  0  0  0  0  0  0  0  0
    4.6564  -48.5464  -23.0963 C   0  0  0  0  0  0  0  0  0  0  0  0
    5.3899  -48.5644  -21.9504 O   0  0  0  0  0  0  0  0  0  0  0  0
    4.3343  -47.2496  -23.4363 N   0  0  0  0  0  0  0  0  0  0  0  0
    4.8094  -46.0842  -22.6368 C   0  0  0  0  0  0  0  0  0  0  0  0
    3.4890  -45.3958  -22.3606 C   0  0  0  0  0  0  0  0  0  0  0  0
    2.7542  -45.5600  -23.6475 C   0  0  0  0  0  0  0  0  0  0  0  0
    3.5317  -46.6476  -24.4339 C   0  0  0  0  0  0  0  0  0  0  0  0
    4.2455  -45.9067  -25.4872 C   0  0  0  0  0  0  0  0  0  0  0  0
    4.5692  -44.7201  -25.3128 O   0  0  0  0  0  0  0  0  0  0  0  0
    4.5620  -46.5520  -26.7073 N   0  0  0  0  0  0  0  0  0  0  0  0
    4.3209  -47.5492  -26.8941 H   0  0  0  0  0  0  0  0  0  0  0  0
    5.2579  -45.7922  -27.7648 C   0  0  0  0  0  0  0  0  0  0  0  0
    4.2860  -45.1368  -28.6482 C   0  0  0  0  0  0  0  0  0  0  0  0
    4.3443  -43.8605  -28.8091 O   0  0  0  0  0  0  0  0  0  0  0  0
    3.2991  -45.7672  -29.3395 O   0  0  0  0  0  0  0  0  0  0  0  0
    1.9398  -45.8014  -28.8774 C   0  0  0  0  0  0  0  0  0  0  0  0
    6.1267  -46.7412  -28.5250 C   0  0  0  0  0  0  0  0  0  0  0  0
    7.4872  -46.3009  -28.8055 C   0  0  0  0  0  0  0  0  0  0  0  0
    8.5143  -46.9696  -28.1431 C   0  0  0  0  0  0  0  0  0  0  0  0
    9.8031  -46.5987  -28.3984 C   0  0  0  0  0  0  0  0  0  0  0  0
   10.1217  -45.5914  -29.2848 C   0  0  0  0  0  0  0  0  0  0  0  0
    9.0603  -44.9383  -29.9370 C   0  0  0  0  0  0  0  0  0  0  0  0
    7.7729  -45.2950  -29.6926 C   0  0  0  0  0  0  0  0  0  0  0  0
    2.8699  -51.2524  -22.1130 C   0  0  0  0  0  0  0  0  0  0  0  0
    3.9087  -51.9364  -21.7849 O   0  0  0  0  0  0  0  0  0  0  0  0
    3.0613  -50.1981  -23.0075 N   0  0  0  0  0  0  0  0  0  0  0  0
    2.2827  -49.5958  -23.3314 H   0  0  0  0  0  0  0  0  0  0  0  0
    1.6209  -51.6729  -21.5117 C   0  0  0  0  0  0  0  0  0  0  0  0
    0.8401  -52.5210  -22.3749 N   0  0  0  0  0  0  0  0  0  0  0  0
    0.2922  -52.2587  -23.6362 C   0  0  0  0  0  0  0  0  0  0  0  0
    0.3521  -51.2101  -24.3045 O   0  0  0  0  0  0  0  0  0  0  0  0
    0.6389  -53.5211  -22.0002 H   0  0  0  0  0  0  0  0  0  0  0  0
   -0.4432  -53.2877  -24.2871 O   0  0  0  0  0  0  0  0  0  0  0  0
    0.1179  -54.0665  -25.3118 C   0  0  0  0  0  0  0  0  0  0  0  0
   -0.1332  -53.5791  -26.6628 C   0  0  0  0  0  0  0  0  0  0  0  0
   -1.3004  -52.8724  -26.9342 C   0  0  0  0  0  0  0  0  0  0  0  0
   -1.6064  -52.3888  -28.1799 C   0  0  0  0  0  0  0  0  0  0  0  0
   -0.7247  -52.6023  -29.2356 C   0  0  0  0  0  0  0  0  0  0  0  0
    0.4385  -53.3035  -28.9756 C   0  0  0  0  0  0  0  0  0  0  0  0
    0.7310  -53.7837  -27.7138 C   0  0  0  0  0  0  0  0  0  0  0  0
    1.7205  -52.3267  -20.1512 C   0  0  0  0  0  0  0  0  0  0  0  0
    1.5859  -51.3440  -18.9970 C   0  0  0  0  0  0  0  0  0  0  0  0
   -0.4488  -52.7834  -18.9514 C   0  0  0  0  0  0  0  0  0  0  0  0
    0.5214  -53.2570  -20.0163 C   0  0  0  0  0  0  0  0  0  0  0  0
    4.5259  -50.3711  -24.9254 C   0  0  0  0  0  0  0  0  0  0  0  0
    3.2708  -50.6821  -25.6740 C   0  0  0  0  0  0  0  0  0  0  0  0
    3.4375  -50.3978  -27.1468 C   0  0  0  0  0  0  0  0  0  0  0  0
    3.5966  -49.2227  -27.5410 O   0  0  0  0  0  0  0  0  0  0  0  0
    3.4228  -51.4093  -28.1028 O   0  0  0  0  0  0  0  0  0  0  0  0
    3.9131  -51.3590  -28.9649 H   0  0  0  0  0  0  0  0  0  0  0  0
 44 45  1  0  0  0
 45 42  1  0  0  0
 42 43  1  0  0  0
 42 29  1  0  0  0
 29 30  1  0  0  0
 30 31  1  0  0  0
 31 32  2  0  0  0
 31 34  1  0  0  0
 34 35  1  0  0  0
 35 36  1  0  0  0
 36 37  2  0  0  0
 37 38  1  0  0  0
 38 39  2  0  0  0
 39 40  1  0  0  0
 40 41  2  0  0  0
 29 25  1  0  0  0
 25 26  2  0  0  0
 25 27  1  0  0  0
 27  1  1  0  0  0
  1 46  1  0  0  0
 46 47  1  0  0  0
 47 48  1  0  0  0
 48 49  2  0  0  0
 48 50  1  0  0  0
  1  2  1  0  0  0
  2  3  2  0  0  0
  2  4  1  0  0  0
  4  5  1  0  0  0
  5  6  1  0  0  0
  6  7  1  0  0  0
  7  8  1  0  0  0
  8  9  1  0  0  0
  9 10  2  0  0  0
  9 11  1  0  0  0
 11 13  1  0  0  0
 13 18  1  0  0  0
 18 19  1  0  0  0
 19 20  2  0  0  0
 20 21  1  0  0  0
 21 22  2  0  0  0
 22 23  1  0  0  0
 23 24  2  0  0  0
 13 14  1  0  0  0
 14 15  2  0  0  0
 14 16  1  0  0  0
 16 17  1  0  0  0
 41 36  1  0  0  0
  8  4  1  0  0  0
 24 19  1  0  0  0
 30 33  1  0  0  0
 27 28  1  0  0  0
 50 51  1  0  0  0
 11 12  1  0  0  0
M  END
> <minimizedAffinity>
-6.28945

> <CNNscore>
0.1511674523

> <CNNaffinity>
6.7695112228

> <CNN_VS>
1.0233297348

> <CNNaffinity_variance>
0.0972665176

$$$$
[H]OC(=O)C([H])([H])C([H])([H])[C@@]([H])(C(=O)N1C([H])([H])C([H])([H])C([H])([H])[C@@]1([H])C(=O)N([H])[C@]([H])(C(=O)OC([H])([H])[H])C([H])([H])c1c([H])c([H])c([H])c([H])c1[H])N([H])C(=O)[C@@]([H])(N([H])C(=O)OC([H])([H])c1c([H])c([H])c([H])c([H])c1[H])[C@@]([H])(C([H])([H])[H])C([H])([H])C([H])([H])[H]


 51 53  0  0  0  0  0  0  0  0999 V2000
    3.2485  -51.2086  -25.4108 C   0  0  0  0  0  0  0  0  0  0  0  0
    3.9115  -51.4306  -24.1571 C   0  0  0  0  0  0  0  0  0  0  0  0
    4.3255  -52.7248  -24.0838 O   0  0  0  0  0  0  0  0  0  0  0  0
    4.2535  -50.7543  -23.0053 N   0  0  0  0  0  0  0  0  0  0  0  0
    5.0179  -51.4084  -21.9049 C   0  0  0  0  0  0  0  0  0  0  0  0
    4.0977  -51.1232  -20.7364 C   0  0  0  0  0  0  0  0  0  0  0  0
    3.6314  -49.7343  -21.0131 C   0  0  0  0  0  0  0  0  0  0  0  0
    4.0013  -49.4594  -22.4941 C   0  0  0  0  0  0  0  0  0  0  0  0
    5.1555  -48.5477  -22.4267 C   0  0  0  0  0  0  0  0  0  0  0  0
    5.2494  -47.7185  -21.5064 O   0  0  0  0  0  0  0  0  0  0  0  0
    6.1628  -48.6164  -23.4195 N   0  0  0  0  0  0  0  0  0  0  0  0
    6.1325  -49.3034  -24.2035 H   0  0  0  0  0  0  0  0  0  0  0  0
    7.3041  -47.6820  -23.3540 C   0  0  0  0  0  0  0  0  0  0  0  0
    7.4754  -46.9924  -24.6384 C   0  0  0  0  0  0  0  0  0  0  0  0
    8.5875  -47.1180  -25.2754 O   0  0  0  0  0  0  0  0  0  0  0  0
    6.5419  -46.2104  -25.2436 O   0  0  0  0  0  0  0  0  0  0  0  0
    5.8131  -45.1966  -24.5340 C   0  0  0  0  0  0  0  0  0  0  0  0
    8.5254  -48.4633  -22.9918 C   0  0  0  0  0  0  0  0  0  0  0  0
    8.9185  -48.4494  -21.5886 C   0  0  0  0  0  0  0  0  0  0  0  0
    9.8769  -47.5109  -21.2128 C   0  0  0  0  0  0  0  0  0  0  0  0
   10.2531  -47.4541  -19.9017 C   0  0  0  0  0  0  0  0  0  0  0  0
    9.7198  -48.2885  -18.9418 C   0  0  0  0  0  0  0  0  0  0  0  0
    8.7537  -49.2231  -19.3558 C   0  0  0  0  0  0  0  0  0  0  0  0
    8.3700  -49.2927  -20.6566 C   0  0  0  0  0  0  0  0  0  0  0  0
    1.5688  -53.0556  -25.9035 C   0  0  0  0  0  0  0  0  0  0  0  0
    2.4250  -53.4721  -26.7684 O   0  0  0  0  0  0  0  0  0  0  0  0
    1.9083  -51.9156  -25.1732 N   0  0  0  0  0  0  0  0  0  0  0  0
    1.2796  -51.5057  -24.4585 H   0  0  0  0  0  0  0  0  0  0  0  0
    0.3466  -53.8265  -25.8028 C   0  0  0  0  0  0  0  0  0  0  0  0
   -0.2090  -53.8266  -24.4740 N   0  0  0  0  0  0  0  0  0  0  0  0
   -0.9457  -54.8134  -23.8081 C   0  0  0  0  0  0  0  0  0  0  0  0
   -1.2992  -55.9314  -24.2263 O   0  0  0  0  0  0  0  0  0  0  0  0
   -0.0358  -52.9277  -23.8885 H   0  0  0  0  0  0  0  0  0  0  0  0
   -1.3772  -54.5595  -22.4768 O   0  0  0  0  0  0  0  0  0  0  0  0
   -0.4819  -54.5516  -21.3952 C   0  0  0  0  0  0  0  0  0  0  0  0
   -0.2060  -53.2344  -20.8344 C   0  0  0  0  0  0  0  0  0  0  0  0
   -0.0455  -53.0907  -19.4600 C   0  0  0  0  0  0  0  0  0  0  0  0
    0.2101  -51.8842  -18.8614 C   0  0  0  0  0  0  0  0  0  0  0  0
    0.3179  -50.7381  -19.6438 C   0  0  0  0  0  0  0  0  0  0  0  0
    0.1602  -50.8707  -21.0113 C   0  0  0  0  0  0  0  0  0  0  0  0
   -0.0969  -52.0948  -21.5979 C   0  0  0  0  0  0  0  0  0  0  0  0
   -0.7484  -53.4755  -26.7856 C   0  0  0  0  0  0  0  0  0  0  0  0
   -1.0111  -51.9801  -26.8893 C   0  0  0  0  0  0  0  0  0  0  0  0
   -0.2606  -52.7206  -29.1406 C   0  0  0  0  0  0  0  0  0  0  0  0
   -0.2530  -53.8836  -28.1675 C   0  0  0  0  0  0  0  0  0  0  0  0
    2.9880  -49.9400  -26.0589 C   0  0  0  0  0  0  0  0  0  0  0  0
    4.1053  -48.9780  -26.3007 C   0  0  0  0  0  0  0  0  0  0  0  0
    3.8841  -48.2055  -27.5783 C   0  0  0  0  0  0  0  0  0  0  0  0
    3.3062  -47.0981  -27.5453 O   0  0  0  0  0  0  0  0  0  0  0  0
    4.3064  -48.6833  -28.8155 O   0  0  0  0  0  0  0  0  0  0  0  0
    4.5634  -48.0960  -29.5738 H   0  0  0  0  0  0  0  0  0  0  0  0
 44 45  1  0  0  0
 45 42  1  0  0  0
 42 43  1  0  0  0
 42 29  1  0  0  0
 29 30  1  0  0  0
 30 31  1  0  0  0
 31 32  2  0  0  0
 31 34  1  0  0  0
 34 35  1  0  0  0
 35 36  1  0  0  0
 36 37  2  0  0  0
 37 38  1  0  0  0
 38 39  2  0  0  0
 39 40  1  0  0  0
 40 41  2  0  0  0
 29 25  1  0  0  0
 25 26  2  0  0  0
 25 27  1  0  0  0
 27  1  1  0  0  0
  1 46  1  0  0  0
 46 47  1  0  0  0
 47 48  1  0  0  0
 48 49  2  0  0  0
 48 50  1  0  0  0
  1  2  1  0  0  0
  2  3  2  0  0  0
  2  4  1  0  0  0
  4  5  1  0  0  0
  5  6  1  0  0  0
  6  7  1  0  0  0
  7  8  1  0  0  0
  8  9  1  0  0  0
  9 10  2  0  0  0
  9 11  1  0  0  0
 11 13  1  0  0  0
 13 18  1  0  0  0
 18 19  1  0  0  0
 19 20  2  0  0  0
 20 21  1  0  0  0
 21 22  2  0  0  0
 22 23  1  0  0  0
 23 24  2  0  0  0
 13 14  1  0  0  0
 14 15  2  0  0  0
 14 16  1  0  0  0
 16 17  1  0  0  0
 41 36  1  0  0  0
  8  4  1  0  0  0
 24 19  1  0  0  0
 30 33  1  0  0  0
 27 28  1  0  0  0
 50 51  1  0  0  0
 11 12  1  0  0  0
M  END
> <minimizedAffinity>
-7.13882

> <CNNscore>
0.1463741213

> <CNNaffinity>
6.9120512009

> <CNN_VS>
1.0117454529

> <CNNaffinity_variance>
0.2419228107

$$$$
[H]OC(=O)C([H])([H])C([H])([H])[C@@]([H])(C(=O)N1C([H])([H])C([H])([H])C([H])([H])[C@@]1([H])C(=O)N([H])[C@]([H])(C(=O)OC([H])([H])[H])C([H])([H])c1c([H])c([H])c([H])c([H])c1[H])N([H])C(=O)[C@@]([H])(N([H])C(=O)OC([H])([H])c1c([H])c([H])c([H])c([H])c1[H])[C@@]([H])(C([H])([H])[H])C([H])([H])C([H])([H])[H]


 51 53  0  0  0  0  0  0  0  0999 V2000
    0.0974  -53.6158  -25.4266 C   0  0  0  0  0  0  0  0  0  0  0  0
   -0.1540  -53.9694  -24.0584 C   0  0  0  0  0  0  0  0  0  0  0  0
   -0.3555  -55.3119  -23.9645 O   0  0  0  0  0  0  0  0  0  0  0  0
   -0.2638  -53.3825  -22.8156 N   0  0  0  0  0  0  0  0  0  0  0  0
   -0.5149  -54.1852  -21.5844 C   0  0  0  0  0  0  0  0  0  0  0  0
   -1.7358  -53.4693  -21.0453 C   0  0  0  0  0  0  0  0  0  0  0  0
   -1.4298  -52.0369  -21.3237 C   0  0  0  0  0  0  0  0  0  0  0  0
   -0.2528  -52.0523  -22.3338 C   0  0  0  0  0  0  0  0  0  0  0  0
    0.9229  -51.6542  -21.5417 C   0  0  0  0  0  0  0  0  0  0  0  0
    2.0139  -52.2258  -21.7043 O   0  0  0  0  0  0  0  0  0  0  0  0
    0.8066  -50.6147  -20.5873 N   0  0  0  0  0  0  0  0  0  0  0  0
   -0.0850  -50.0990  -20.4246 H   0  0  0  0  0  0  0  0  0  0  0  0
    1.9867  -50.2396  -19.7832 C   0  0  0  0  0  0  0  0  0  0  0  0
    1.9704  -50.9395  -18.4930 C   0  0  0  0  0  0  0  0  0  0  0  0
    3.0875  -51.2511  -17.9333 O   0  0  0  0  0  0  0  0  0  0  0  0
    0.8536  -51.2999  -17.8061 O   0  0  0  0  0  0  0  0  0  0  0  0
    0.1417  -50.3815  -16.9622 C   0  0  0  0  0  0  0  0  0  0  0  0
    1.9700  -48.7572  -19.5953 C   0  0  0  0  0  0  0  0  0  0  0  0
    3.2597  -48.0795  -19.6255 C   0  0  0  0  0  0  0  0  0  0  0  0
    4.2379  -48.6248  -20.4542 C   0  0  0  0  0  0  0  0  0  0  0  0
    5.4513  -48.0033  -20.5248 C   0  0  0  0  0  0  0  0  0  0  0  0
    5.7406  -46.8606  -19.8088 C   0  0  0  0  0  0  0  0  0  0  0  0
    4.7296  -46.3365  -18.9831 C   0  0  0  0  0  0  0  0  0  0  0  0
    3.5178  -46.9440  -18.9013 C   0  0  0  0  0  0  0  0  0  0  0  0
    2.0211  -51.9508  -25.3735 C   0  0  0  0  0  0  0  0  0  0  0  0
    1.1101  -51.0432  -25.4041 O   0  0  0  0  0  0  0  0  0  0  0  0
    1.5932  -53.2793  -25.3818 N   0  0  0  0  0  0  0  0  0  0  0  0
    2.2551  -54.0765  -25.3632 H   0  0  0  0  0  0  0  0  0  0  0  0
    3.3882  -51.4728  -25.3415 C   0  0  0  0  0  0  0  0  0  0  0  0
    3.4860  -50.0427  -25.4810 N   0  0  0  0  0  0  0  0  0  0  0  0
    3.6379  -49.2604  -26.6321 C   0  0  0  0  0  0  0  0  0  0  0  0
    3.7318  -49.6335  -27.8160 O   0  0  0  0  0  0  0  0  0  0  0  0
    3.4351  -49.4724  -24.5574 H   0  0  0  0  0  0  0  0  0  0  0  0
    3.7031  -47.8465  -26.4912 O   0  0  0  0  0  0  0  0  0  0  0  0
    4.7893  -47.2121  -25.8676 C   0  0  0  0  0  0  0  0  0  0  0  0
    4.4600  -46.4876  -24.6459 C   0  0  0  0  0  0  0  0  0  0  0  0
    3.2667  -46.7593  -23.9844 C   0  0  0  0  0  0  0  0  0  0  0  0
    2.8881  -46.1151  -22.8351 C   0  0  0  0  0  0  0  0  0  0  0  0
    3.7189  -45.1418  -22.2873 C   0  0  0  0  0  0  0  0  0  0  0  0
    4.9075  -44.8648  -22.9375 C   0  0  0  0  0  0  0  0  0  0  0  0
    5.2734  -45.5241  -24.0951 C   0  0  0  0  0  0  0  0  0  0  0  0
    4.2189  -51.9015  -24.1523 C   0  0  0  0  0  0  0  0  0  0  0  0
    5.5263  -52.5770  -24.5400 C   0  0  0  0  0  0  0  0  0  0  0  0
    6.1303  -50.5841  -23.1698 C   0  0  0  0  0  0  0  0  0  0  0  0
    4.6354  -50.6318  -23.4201 C   0  0  0  0  0  0  0  0  0  0  0  0
   -0.1561  -54.4167  -26.6062 C   0  0  0  0  0  0  0  0  0  0  0  0
    0.5826  -54.1382  -27.8747 C   0  0  0  0  0  0  0  0  0  0  0  0
   -0.1724  -53.1521  -28.7324 C   0  0  0  0  0  0  0  0  0  0  0  0
   -1.2906  -52.7335  -28.3640 O   0  0  0  0  0  0  0  0  0  0  0  0
    0.3352  -52.6793  -29.9391 O   0  0  0  0  0  0  0  0  0  0  0  0
    0.1198  -51.7854  -30.3142 H   0  0  0  0  0  0  0  0  0  0  0  0
 44 45  1  0  0  0
 45 42  1  0  0  0
 42 43  1  0  0  0
 42 29  1  0  0  0
 29 30  1  0  0  0
 30 31  1  0  0  0
 31 32  2  0  0  0
 31 34  1  0  0  0
 34 35  1  0  0  0
 35 36  1  0  0  0
 36 37  2  0  0  0
 37 38  1  0  0  0
 38 39  2  0  0  0
 39 40  1  0  0  0
 40 41  2  0  0  0
 29 25  1  0  0  0
 25 26  2  0  0  0
 25 27  1  0  0  0
 27  1  1  0  0  0
  1 46  1  0  0  0
 46 47  1  0  0  0
 47 48  1  0  0  0
 48 49  2  0  0  0
 48 50  1  0  0  0
  1  2  1  0  0  0
  2  3  2  0  0  0
  2  4  1  0  0  0
  4  5  1  0  0  0
  5  6  1  0  0  0
  6  7  1  0  0  0
  7  8  1  0  0  0
  8  9  1  0  0  0
  9 10  2  0  0  0
  9 11  1  0  0  0
 11 13  1  0  0  0
 13 18  1  0  0  0
 18 19  1  0  0  0
 19 20  2  0  0  0
 20 21  1  0  0  0
 21 22  2  0  0  0
 22 23  1  0  0  0
 23 24  2  0  0  0
 13 14  1  0  0  0
 14 15  2  0  0  0
 14 16  1  0  0  0
 16 17  1  0  0  0
 41 36  1  0  0  0
  8  4  1  0  0  0
 24 19  1  0  0  0
 30 33  1  0  0  0
 27 28  1  0  0  0
 50 51  1  0  0  0
 11 12  1  0  0  0
M  END
> <minimizedAffinity>
-6.49924

> <CNNscore>
0.1379904449

> <CNNaffinity>
7.1562781334

> <CNN_VS>
0.9874979854

> <CNNaffinity_variance>
0.2194630653

$$$$
[H]OC(=O)C([H])([H])C([H])([H])[C@@]([H])(C(=O)N1C([H])([H])C([H])([H])C([H])([H])[C@@]1([H])C(=O)N([H])[C@]([H])(C(=O)OC([H])([H])[H])C([H])([H])c1c([H])c([H])c([H])c([H])c1[H])N([H])C(=O)[C@@]([H])(N([H])C(=O)OC([H])([H])c1c([H])c([H])c([H])c([H])c1[H])[C@@]([H])(C([H])([H])[H])C([H])([H])C([H])([H])[H]


 51 53  0  0  0  0  0  0  0  0999 V2000
    4.2599  -49.7807  -21.2449 C   0  0  0  0  0  0  0  0  0  0  0  0
    3.8054  -48.6011  -20.5650 C   0  0  0  0  0  0  0  0  0  0  0  0
    3.0171  -47.8699  -21.3990 O   0  0  0  0  0  0  0  0  0  0  0  0
    3.9199  -47.9721  -19.3434 N   0  0  0  0  0  0  0  0  0  0  0  0
    3.2033  -46.6998  -19.0419 C   0  0  0  0  0  0  0  0  0  0  0  0
    4.3662  -45.8407  -18.5912 C   0  0  0  0  0  0  0  0  0  0  0  0
    5.1959  -46.7943  -17.8004 C   0  0  0  0  0  0  0  0  0  0  0  0
    4.6667  -48.2060  -18.1647 C   0  0  0  0  0  0  0  0  0  0  0  0
    3.9021  -48.6339  -16.9813 C   0  0  0  0  0  0  0  0  0  0  0  0
    3.9550  -47.9785  -15.9273 O   0  0  0  0  0  0  0  0  0  0  0  0
    3.1038  -49.8016  -17.0463 N   0  0  0  0  0  0  0  0  0  0  0  0
    3.0194  -50.3766  -17.9122 H   0  0  0  0  0  0  0  0  0  0  0  0
    2.3594  -50.2333  -15.8466 C   0  0  0  0  0  0  0  0  0  0  0  0
    3.1426  -51.2119  -15.0828 C   0  0  0  0  0  0  0  0  0  0  0  0
    3.9942  -51.9547  -15.7005 O   0  0  0  0  0  0  0  0  0  0  0  0
    3.0569  -51.4152  -13.7410 O   0  0  0  0  0  0  0  0  0  0  0  0
    2.0496  -50.7875  -12.9325 C   0  0  0  0  0  0  0  0  0  0  0  0
    1.0551  -50.8118  -16.2909 C   0  0  0  0  0  0  0  0  0  0  0  0
   -0.1486  -50.0935  -15.8926 C   0  0  0  0  0  0  0  0  0  0  0  0
   -1.2721  -50.8628  -15.5981 C   0  0  0  0  0  0  0  0  0  0  0  0
   -2.4115  -50.2249  -15.1999 C   0  0  0  0  0  0  0  0  0  0  0  0
   -2.4882  -48.8532  -15.0790 C   0  0  0  0  0  0  0  0  0  0  0  0
   -1.3350  -48.1075  -15.3830 C   0  0  0  0  0  0  0  0  0  0  0  0
   -0.1943  -48.7275  -15.7817 C   0  0  0  0  0  0  0  0  0  0  0  0
    2.3510  -51.4262  -20.8925 C   0  0  0  0  0  0  0  0  0  0  0  0
    2.9816  -51.7825  -19.8294 O   0  0  0  0  0  0  0  0  0  0  0  0
    2.9299  -50.4184  -21.6655 N   0  0  0  0  0  0  0  0  0  0  0  0
    2.4960  -50.0702  -22.5399 H   0  0  0  0  0  0  0  0  0  0  0  0
    1.1124  -52.1290  -21.1576 C   0  0  0  0  0  0  0  0  0  0  0  0
    1.0840  -52.7445  -22.4593 N   0  0  0  0  0  0  0  0  0  0  0  0
    1.0795  -52.1582  -23.7306 C   0  0  0  0  0  0  0  0  0  0  0  0
    1.0919  -50.9491  -24.0267 O   0  0  0  0  0  0  0  0  0  0  0  0
    1.0628  -53.8310  -22.4689 H   0  0  0  0  0  0  0  0  0  0  0  0
    1.0546  -53.0066  -24.8721 O   0  0  0  0  0  0  0  0  0  0  0  0
    1.1693  -52.4995  -26.1763 C   0  0  0  0  0  0  0  0  0  0  0  0
   -0.0658  -52.5087  -26.9509 C   0  0  0  0  0  0  0  0  0  0  0  0
   -0.0269  -52.8231  -28.3056 C   0  0  0  0  0  0  0  0  0  0  0  0
   -1.1455  -52.8465  -29.0978 C   0  0  0  0  0  0  0  0  0  0  0  0
   -2.3864  -52.5455  -28.5438 C   0  0  0  0  0  0  0  0  0  0  0  0
   -2.4353  -52.2319  -27.1978 C   0  0  0  0  0  0  0  0  0  0  0  0
   -1.2979  -52.2134  -26.4140 C   0  0  0  0  0  0  0  0  0  0  0  0
    0.6915  -53.1540  -20.1278 C   0  0  0  0  0  0  0  0  0  0  0  0
   -0.2455  -52.5953  -19.0667 C   0  0  0  0  0  0  0  0  0  0  0  0
   -1.6192  -53.9535  -20.7407 C   0  0  0  0  0  0  0  0  0  0  0  0
   -0.1291  -54.2086  -20.8599 C   0  0  0  0  0  0  0  0  0  0  0  0
    5.1774  -49.8570  -22.3627 C   0  0  0  0  0  0  0  0  0  0  0  0
    6.0451  -51.0604  -22.5400 C   0  0  0  0  0  0  0  0  0  0  0  0
    5.5411  -51.9265  -23.6686 C   0  0  0  0  0  0  0  0  0  0  0  0
    4.4678  -52.5539  -23.5417 O   0  0  0  0  0  0  0  0  0  0  0  0
    6.2341  -52.0570  -24.8686 O   0  0  0  0  0  0  0  0  0  0  0  0
    5.7957  -52.2433  -25.7398 H   0  0  0  0  0  0  0  0  0  0  0  0
 44 45  1  0  0  0
 45 42  1  0  0  0
 42 43  1  0  0  0
 42 29  1  0  0  0
 29 30  1  0  0  0
 30 31  1  0  0  0
 31 32  2  0  0  0
 31 34  1  0  0  0
 34 35  1  0  0  0
 35 36  1  0  0  0
 36 37  2  0  0  0
 37 38  1  0  0  0
 38 39  2  0  0  0
 39 40  1  0  0  0
 40 41  2  0  0  0
 29 25  1  0  0  0
 25 26  2  0  0  0
 25 27  1  0  0  0
 27  1  1  0  0  0
  1 46  1  0  0  0
 46 47  1  0  0  0
 47 48  1  0  0  0
 48 49  2  0  0  0
 48 50  1  0  0  0
  1  2  1  0  0  0
  2  3  2  0  0  0
  2  4  1  0  0  0
  4  5  1  0  0  0
  5  6  1  0  0  0
  6  7  1  0  0  0
  7  8  1  0  0  0
  8  9  1  0  0  0
  9 10  2  0  0  0
  9 11  1  0  0  0
 11 13  1  0  0  0
 13 18  1  0  0  0
 18 19  1  0  0  0
 19 20  2  0  0  0
 20 21  1  0  0  0
 21 22  2  0  0  0
 22 23  1  0  0  0
 23 24  2  0  0  0
 13 14  1  0  0  0
 14 15  2  0  0  0
 14 16  1  0  0  0
 16 17  1  0  0  0
 41 36  1  0  0  0
  8  4  1  0  0  0
 24 19  1  0  0  0
 30 33  1  0  0  0
 27 28  1  0  0  0
 50 51  1  0  0  0
 11 12  1  0  0  0
M  END
> <minimizedAffinity>
-7.62492

> <CNNscore>
0.1005159616

> <CNNaffinity>
6.6044669151

> <CNN_VS>
0.6638543606

> <CNNaffinity_variance>
0.2793909907

$$$$
[H]Oc1c([H])c([H])c([H])c(C2([H])C([H])([H])N(C([H])([H])C([H])([H])C([H])([H])C([H])([H])C([H])([H])C([H])([H])C([H])([H])C([H])([H])C([H])([H])[H])C([H])([H])C2([H])[H])c1[H]


 22 23  0  0  0  0  0  0  0  0999 V2000
    0.1131  -51.9362  -23.1951 N   0  0  0  0  0  0  0  0  0  0  0  0
    0.0614  -53.3724  -23.1675 C   0  0  0  0  0  0  0  0  0  0  0  0
   -0.5943  -53.8051  -24.4548 C   0  0  0  0  0  0  0  0  0  0  0  0
   -0.6682  -52.5492  -25.2736 C   0  0  0  0  0  0  0  0  0  0  0  0
    0.2697  -51.6051  -24.6194 C   0  0  0  0  0  0  0  0  0  0  0  0
   -0.3318  -52.8001  -26.7031 C   0  0  0  0  0  0  0  0  0  0  0  0
   -1.2625  -52.4628  -27.6612 C   0  0  0  0  0  0  0  0  0  0  0  0
   -0.9953  -52.6732  -29.0182 C   0  0  0  0  0  0  0  0  0  0  0  0
    0.2159  -53.2238  -29.3747 C   0  0  0  0  0  0  0  0  0  0  0  0
    1.1249  -53.5508  -28.4041 C   0  0  0  0  0  0  0  0  0  0  0  0
    2.3360  -54.1031  -28.7858 O   0  0  0  0  0  0  0  0  0  0  0  0
    0.8750  -53.3480  -27.0457 C   0  0  0  0  0  0  0  0  0  0  0  0
    2.5608  -54.2700  -29.7627 H   0  0  0  0  0  0  0  0  0  0  0  0
    1.1644  -51.3553  -22.4276 C   0  0  0  0  0  0  0  0  0  0  0  0
    0.7853  -50.9529  -21.0383 C   0  0  0  0  0  0  0  0  0  0  0  0
    1.3369  -51.8318  -19.9721 C   0  0  0  0  0  0  0  0  0  0  0  0
    0.6456  -51.7705  -18.6510 C   0  0  0  0  0  0  0  0  0  0  0  0
   -0.6284  -52.6531  -18.6412 C   0  0  0  0  0  0  0  0  0  0  0  0
   -1.2977  -52.5828  -17.3245 C   0  0  0  0  0  0  0  0  0  0  0  0
   -2.6527  -53.1198  -17.1624 C   0  0  0  0  0  0  0  0  0  0  0  0
   -3.0596  -51.2441  -15.6110 C   0  0  0  0  0  0  0  0  0  0  0  0
   -3.6477  -52.4139  -16.3163 C   0  0  0  0  0  0  0  0  0  0  0  0
 21 22  1  0  0  0
 22 20  1  0  0  0
 20 19  1  0  0  0
 19 18  1  0  0  0
 18 17  1  0  0  0
 17 16  1  0  0  0
 16 15  1  0  0  0
 15 14  1  0  0  0
 14  1  1  0  0  0
  1  2  1  0  0  0
  2  3  1  0  0  0
  3  4  1  0  0  0
  4  6  1  0  0  0
  6  7  2  0  0  0
  7  8  1  0  0  0
  8  9  2  0  0  0
  9 10  1  0  0  0
 10 11  1  0  0  0
 10 12  2  0  0  0
  4  5  1  0  0  0
  5  1  1  0  0  0
 12  6  1  0  0  0
 11 13  1  0  0  0
M  END
> <minimizedAffinity>
-6.55155

> <CNNscore>
0.5464638472

> <CNNaffinity>
5.9348649979

> <CNN_VS>
3.2431890965

> <CNNaffinity_variance>
0.0636956543

$$$$
[H]Oc1c([H])c([H])c([H])c(C2([H])C([H])([H])N(C([H])([H])C([H])([H])C([H])([H])C([H])([H])C([H])([H])C([H])([H])C([H])([H])C([H])([H])C([H])([H])[H])C([H])([H])C2([H])[H])c1[H]


 22 23  0  0  0  0  0  0  0  0999 V2000
    0.4453  -52.1020  -23.0071 N   0  0  0  0  0  0  0  0  0  0  0  0
    0.1858  -53.5151  -23.0526 C   0  0  0  0  0  0  0  0  0  0  0  0
   -0.6481  -53.7609  -24.2849 C   0  0  0  0  0  0  0  0  0  0  0  0
   -0.6155  -52.4535  -25.0214 C   0  0  0  0  0  0  0  0  0  0  0  0
    0.5100  -51.6984  -24.4198 C   0  0  0  0  0  0  0  0  0  0  0  0
   -0.4598  -52.6495  -26.4901 C   0  0  0  0  0  0  0  0  0  0  0  0
   -1.5447  -52.3965  -27.3006 C   0  0  0  0  0  0  0  0  0  0  0  0
   -1.4510  -52.5603  -28.6868 C   0  0  0  0  0  0  0  0  0  0  0  0
   -0.2531  -52.9793  -29.2224 C   0  0  0  0  0  0  0  0  0  0  0  0
    0.8111  -53.2246  -28.3962 C   0  0  0  0  0  0  0  0  0  0  0  0
    2.0055  -53.6450  -28.9568 O   0  0  0  0  0  0  0  0  0  0  0  0
    0.7354  -53.0665  -27.0112 C   0  0  0  0  0  0  0  0  0  0  0  0
    2.1064  -53.7749  -29.9595 H   0  0  0  0  0  0  0  0  0  0  0  0
    1.6399  -51.7295  -22.3247 C   0  0  0  0  0  0  0  0  0  0  0  0
    1.5690  -51.8135  -20.8335 C   0  0  0  0  0  0  0  0  0  0  0  0
    0.2477  -51.4420  -20.2593 C   0  0  0  0  0  0  0  0  0  0  0  0
    0.1731  -51.3893  -18.7699 C   0  0  0  0  0  0  0  0  0  0  0  0
    1.0520  -50.2456  -18.2026 C   0  0  0  0  0  0  0  0  0  0  0  0
    0.5121  -49.7689  -16.9111 C   0  0  0  0  0  0  0  0  0  0  0  0
   -0.6704  -50.4125  -16.3296 C   0  0  0  0  0  0  0  0  0  0  0  0
   -1.3431  -48.2106  -15.4408 C   0  0  0  0  0  0  0  0  0  0  0  0
   -1.5242  -49.6844  -15.3575 C   0  0  0  0  0  0  0  0  0  0  0  0
 21 22  1  0  0  0
 22 20  1  0  0  0
 20 19  1  0  0  0
 19 18  1  0  0  0
 18 17  1  0  0  0
 17 16  1  0  0  0
 16 15  1  0  0  0
 15 14  1  0  0  0
 14  1  1  0  0  0
  1  2  1  0  0  0
  2  3  1  0  0  0
  3  4  1  0  0  0
  4  6  1  0  0  0
  6  7  2  0  0  0
  7  8  1  0  0  0
  8  9  2  0  0  0
  9 10  1  0  0  0
 10 11  1  0  0  0
 10 12  2  0  0  0
  4  5  1  0  0  0
  5  1  1  0  0  0
 12  6  1  0  0  0
 11 13  1  0  0  0
M  END
> <minimizedAffinity>
-6.21570

> <CNNscore>
0.5219692588

> <CNNaffinity>
5.7867918015

> <CNN_VS>
3.0205273628

> <CNNaffinity_variance>
0.0256297383

$$$$
[H]Oc1c([H])c([H])c([H])c(C2([H])C([H])([H])N(C([H])([H])C([H])([H])C([H])([H])C([H])([H])C([H])([H])C([H])([H])C([H])([H])C([H])([H])C([H])([H])[H])C([H])([H])C2([H])[H])c1[H]


 22 23  0  0  0  0  0  0  0  0999 V2000
    1.2510  -52.0831  -23.6318 N   0  0  0  0  0  0  0  0  0  0  0  0
    1.6285  -50.8589  -24.2838 C   0  0  0  0  0  0  0  0  0  0  0  0
    1.5969  -51.1325  -25.7665 C   0  0  0  0  0  0  0  0  0  0  0  0
    0.9522  -52.4832  -25.8806 C   0  0  0  0  0  0  0  0  0  0  0  0
    0.3079  -52.7168  -24.5656 C   0  0  0  0  0  0  0  0  0  0  0  0
   -0.0121  -52.5420  -27.0147 C   0  0  0  0  0  0  0  0  0  0  0  0
    0.4870  -52.7170  -28.2869 C   0  0  0  0  0  0  0  0  0  0  0  0
   -0.3751  -52.7835  -29.3866 C   0  0  0  0  0  0  0  0  0  0  0  0
   -1.7308  -52.6705  -29.1703 C   0  0  0  0  0  0  0  0  0  0  0  0
   -2.2028  -52.4970  -27.8966 C   0  0  0  0  0  0  0  0  0  0  0  0
   -3.5694  -52.3857  -27.7030 O   0  0  0  0  0  0  0  0  0  0  0  0
   -1.3573  -52.4282  -26.7879 C   0  0  0  0  0  0  0  0  0  0  0  0
   -4.2226  -52.4287  -28.4803 H   0  0  0  0  0  0  0  0  0  0  0  0
    0.6532  -51.9236  -22.3478 C   0  0  0  0  0  0  0  0  0  0  0  0
   -0.3073  -53.0017  -21.9590 C   0  0  0  0  0  0  0  0  0  0  0  0
   -0.6828  -53.0000  -20.5193 C   0  0  0  0  0  0  0  0  0  0  0  0
    0.4174  -52.7009  -19.5566 C   0  0  0  0  0  0  0  0  0  0  0  0
   -0.0479  -51.7082  -18.4611 C   0  0  0  0  0  0  0  0  0  0  0  0
   -0.9194  -52.3899  -17.4801 C   0  0  0  0  0  0  0  0  0  0  0  0
   -1.0099  -51.8851  -16.1061 C   0  0  0  0  0  0  0  0  0  0  0  0
   -1.3047  -49.5826  -15.2678 C   0  0  0  0  0  0  0  0  0  0  0  0
   -1.9781  -50.8148  -15.7580 C   0  0  0  0  0  0  0  0  0  0  0  0
 21 22  1  0  0  0
 22 20  1  0  0  0
 20 19  1  0  0  0
 19 18  1  0  0  0
 18 17  1  0  0  0
 17 16  1  0  0  0
 16 15  1  0  0  0
 15 14  1  0  0  0
 14  1  1  0  0  0
  1  2  1  0  0  0
  2  3  1  0  0  0
  3  4  1  0  0  0
  4  6  1  0  0  0
  6  7  2  0  0  0
  7  8  1  0  0  0
  8  9  2  0  0  0
  9 10  1  0  0  0
 10 11  1  0  0  0
 10 12  2  0  0  0
  4  5  1  0  0  0
  5  1  1  0  0  0
 12  6  1  0  0  0
 11 13  1  0  0  0
M  END
> <minimizedAffinity>
-6.76010

> <CNNscore>
0.5177653432

> <CNNaffinity>
5.9261512756

> <CNN_VS>
3.0683557987

> <CNNaffinity_variance>
0.2796207666

$$$$
[H]Oc1c([H])c([H])c([H])c(C2([H])C([H])([H])N(C([H])([H])C([H])([H])C([H])([H])C([H])([H])C([H])([H])C([H])([H])C([H])([H])C([H])([H])C([H])([H])[H])C([H])([H])C2([H])[H])c1[H]


 22 23  0  0  0  0  0  0  0  0999 V2000
    2.5773  -52.5028  -24.0843 N   0  0  0  0  0  0  0  0  0  0  0  0
    3.4251  -52.1581  -25.1927 C   0  0  0  0  0  0  0  0  0  0  0  0
    2.8098  -52.7863  -26.4179 C   0  0  0  0  0  0  0  0  0  0  0  0
    1.4696  -53.2748  -25.9507 C   0  0  0  0  0  0  0  0  0  0  0  0
    1.2285  -52.5740  -24.6663 C   0  0  0  0  0  0  0  0  0  0  0  0
    0.4039  -53.0155  -26.9590 C   0  0  0  0  0  0  0  0  0  0  0  0
    0.7423  -53.0662  -28.2936 C   0  0  0  0  0  0  0  0  0  0  0  0
   -0.2211  -52.8349  -29.2812 C   0  0  0  0  0  0  0  0  0  0  0  0
   -1.5124  -52.5559  -28.8913 C   0  0  0  0  0  0  0  0  0  0  0  0
   -1.8243  -52.5109  -27.5586 C   0  0  0  0  0  0  0  0  0  0  0  0
   -3.1289  -52.2286  -27.1898 O   0  0  0  0  0  0  0  0  0  0  0  0
   -0.8760  -52.7389  -26.5598 C   0  0  0  0  0  0  0  0  0  0  0  0
   -3.8521  -52.0546  -27.8822 H   0  0  0  0  0  0  0  0  0  0  0  0
    2.6046  -51.5839  -22.9950 C   0  0  0  0  0  0  0  0  0  0  0  0
    1.4212  -50.6743  -22.9051 C   0  0  0  0  0  0  0  0  0  0  0  0
    0.9969  -50.3538  -21.5155 C   0  0  0  0  0  0  0  0  0  0  0  0
   -0.0767  -51.2183  -20.9435 C   0  0  0  0  0  0  0  0  0  0  0  0
    0.4859  -52.1688  -19.8562 C   0  0  0  0  0  0  0  0  0  0  0  0
   -0.0039  -53.5477  -20.0694 C   0  0  0  0  0  0  0  0  0  0  0  0
   -0.0473  -54.1080  -21.4240 C   0  0  0  0  0  0  0  0  0  0  0  0
   -1.1759  -55.0412  -23.4105 C   0  0  0  0  0  0  0  0  0  0  0  0
   -1.3320  -54.5670  -22.0096 C   0  0  0  0  0  0  0  0  0  0  0  0
 21 22  1  0  0  0
 22 20  1  0  0  0
 20 19  1  0  0  0
 19 18  1  0  0  0
 18 17  1  0  0  0
 17 16  1  0  0  0
 16 15  1  0  0  0
 15 14  1  0  0  0
 14  1  1  0  0  0
  1  2  1  0  0  0
  2  3  1  0  0  0
  3  4  1  0  0  0
  4  6  1  0  0  0
  6  7  2  0  0  0
  7  8  1  0  0  0
  8  9  2  0  0  0
  9 10  1  0  0  0
 10 11  1  0  0  0
 10 12  2  0  0  0
  4  5  1  0  0  0
  5  1  1  0  0  0
 12  6  1  0  0  0
 11 13  1  0  0  0
M  END
> <minimizedAffinity>
-6.98628

> <CNNscore>
0.5038899779

> <CNNaffinity>
5.9279060364

> <CNN_VS>
2.9870123863

> <CNNaffinity_variance>
0.7212739587

$$$$
[H]Oc1c([H])c([H])c([H])c(C2([H])C([H])([H])N(C([H])([H])C([H])([H])C([H])([H])C([H])([H])C([H])([H])C([H])([H])C([H])([H])C([H])([H])C([H])([H])[H])C([H])([H])C2([H])[H])c1[H]


 22 23  0  0  0  0  0  0  0  0999 V2000
    2.3319  -51.4365  -23.9113 N   0  0  0  0  0  0  0  0  0  0  0  0
    2.9244  -52.6181  -24.4760 C   0  0  0  0  0  0  0  0  0  0  0  0
    1.8076  -53.3875  -25.1355 C   0  0  0  0  0  0  0  0  0  0  0  0
    0.6402  -52.4445  -25.1064 C   0  0  0  0  0  0  0  0  0  0  0  0
    1.2262  -51.1117  -24.8250 C   0  0  0  0  0  0  0  0  0  0  0  0
   -0.1309  -52.4790  -26.3807 C   0  0  0  0  0  0  0  0  0  0  0  0
   -1.5025  -52.3665  -26.3164 C   0  0  0  0  0  0  0  0  0  0  0  0
   -2.2738  -52.3884  -27.4833 C   0  0  0  0  0  0  0  0  0  0  0  0
   -1.6334  -52.5246  -28.6953 C   0  0  0  0  0  0  0  0  0  0  0  0
   -0.2690  -52.6348  -28.7334 C   0  0  0  0  0  0  0  0  0  0  0  0
    0.3533  -52.7709  -29.9630 O   0  0  0  0  0  0  0  0  0  0  0  0
    0.5162  -52.6151  -27.5793 C   0  0  0  0  0  0  0  0  0  0  0  0
   -0.1778  -52.7917  -30.8291 H   0  0  0  0  0  0  0  0  0  0  0  0
    3.2134  -50.3245  -23.7770 C   0  0  0  0  0  0  0  0  0  0  0  0
    2.6813  -49.1906  -22.9602 C   0  0  0  0  0  0  0  0  0  0  0  0
    2.3007  -49.5602  -21.5702 C   0  0  0  0  0  0  0  0  0  0  0  0
    0.8646  -49.3693  -21.2124 C   0  0  0  0  0  0  0  0  0  0  0  0
    0.2982  -50.6104  -20.4768 C   0  0  0  0  0  0  0  0  0  0  0  0
   -0.0426  -51.6755  -21.4442 C   0  0  0  0  0  0  0  0  0  0  0  0
    0.5804  -52.9980  -21.3265 C   0  0  0  0  0  0  0  0  0  0  0  0
   -1.0341  -54.5182  -22.4096 C   0  0  0  0  0  0  0  0  0  0  0  0
   -0.2563  -54.2155  -21.1787 C   0  0  0  0  0  0  0  0  0  0  0  0
 21 22  1  0  0  0
 22 20  1  0  0  0
 20 19  1  0  0  0
 19 18  1  0  0  0
 18 17  1  0  0  0
 17 16  1  0  0  0
 16 15  1  0  0  0
 15 14  1  0  0  0
 14  1  1  0  0  0
  1  2  1  0  0  0
  2  3  1  0  0  0
  3  4  1  0  0  0
  4  6  1  0  0  0
  6  7  2  0  0  0
  7  8  1  0  0  0
  8  9  2  0  0  0
  9 10  1  0  0  0
 10 11  1  0  0  0
 10 12  2  0  0  0
  4  5  1  0  0  0
  5  1  1  0  0  0
 12  6  1  0  0  0
 11 13  1  0  0  0
M  END
> <minimizedAffinity>
-6.55433

> <CNNscore>
0.5020011067

> <CNNaffinity>
5.9025869370

> <CNN_VS>
2.9631052017

> <CNNaffinity_variance>
0.2307198793

$$$$
[H]Oc1c([H])c([H])c([H])c(C2([H])C([H])([H])N(C([H])([H])C([H])([H])C([H])([H])C([H])([H])C([H])([H])C([H])([H])C([H])([H])C([H])([H])C([H])([H])[H])C([H])([H])C2([H])[H])c1[H]


 22 23  0  0  0  0  0  0  0  0999 V2000
    2.2546  -51.7307  -23.6950 N   0  0  0  0  0  0  0  0  0  0  0  0
    3.2393  -51.9978  -24.7075 C   0  0  0  0  0  0  0  0  0  0  0  0
    2.5717  -52.8732  -25.7381 C   0  0  0  0  0  0  0  0  0  0  0  0
    1.1211  -52.8594  -25.3526 C   0  0  0  0  0  0  0  0  0  0  0  0
    0.9781  -51.7112  -24.4251 C   0  0  0  0  0  0  0  0  0  0  0  0
    0.2330  -52.7535  -26.5440 C   0  0  0  0  0  0  0  0  0  0  0  0
   -1.1149  -52.5567  -26.3374 C   0  0  0  0  0  0  0  0  0  0  0  0
   -1.9923  -52.4459  -27.4214 C   0  0  0  0  0  0  0  0  0  0  0  0
   -1.4804  -52.5376  -28.6969 C   0  0  0  0  0  0  0  0  0  0  0  0
   -0.1370  -52.7334  -28.8767 C   0  0  0  0  0  0  0  0  0  0  0  0
    0.3553  -52.8226  -30.1680 O   0  0  0  0  0  0  0  0  0  0  0  0
    0.7528  -52.8464  -27.8070 C   0  0  0  0  0  0  0  0  0  0  0  0
   -0.2552  -52.7475  -30.9769 H   0  0  0  0  0  0  0  0  0  0  0  0
    2.4403  -50.5124  -22.9789 C   0  0  0  0  0  0  0  0  0  0  0  0
    1.5762  -50.3517  -21.7692 C   0  0  0  0  0  0  0  0  0  0  0  0
    2.2028  -50.8124  -20.5009 C   0  0  0  0  0  0  0  0  0  0  0  0
    1.6803  -52.0929  -19.9404 C   0  0  0  0  0  0  0  0  0  0  0  0
    0.2386  -51.9227  -19.3976 C   0  0  0  0  0  0  0  0  0  0  0  0
    0.1857  -50.8328  -18.3996 C   0  0  0  0  0  0  0  0  0  0  0  0
    0.7443  -51.0396  -17.0594 C   0  0  0  0  0  0  0  0  0  0  0  0
   -1.4818  -51.6537  -16.1886 C   0  0  0  0  0  0  0  0  0  0  0  0
   -0.1441  -51.0865  -15.8709 C   0  0  0  0  0  0  0  0  0  0  0  0
 21 22  1  0  0  0
 22 20  1  0  0  0
 20 19  1  0  0  0
 19 18  1  0  0  0
 18 17  1  0  0  0
 17 16  1  0  0  0
 16 15  1  0  0  0
 15 14  1  0  0  0
 14  1  1  0  0  0
  1  2  1  0  0  0
  2  3  1  0  0  0
  3  4  1  0  0  0
  4  6  1  0  0  0
  6  7  2  0  0  0
  7  8  1  0  0  0
  8  9  2  0  0  0
  9 10  1  0  0  0
 10 11  1  0  0  0
 10 12  2  0  0  0
  4  5  1  0  0  0
  5  1  1  0  0  0
 12  6  1  0  0  0
 11 13  1  0  0  0
M  END
> <minimizedAffinity>
-5.71214

> <CNNscore>
0.4993970990

> <CNNaffinity>
5.8793983459

> <CNN_VS>
2.9361543655

> <CNNaffinity_variance>
0.3559997976

$$$$
[H]Oc1c([H])c([H])c([H])c(C2([H])C([H])([H])N(C([H])([H])C([H])([H])C([H])([H])C([H])([H])C([H])([H])C([H])([H])C([H])([H])C([H])([H])C([H])([H])[H])C([H])([H])C2([H])[H])c1[H]


 22 23  0  0  0  0  0  0  0  0999 V2000
    3.1917  -52.1439  -24.8495 N   0  0  0  0  0  0  0  0  0  0  0  0
    3.1958  -50.8604  -25.4966 C   0  0  0  0  0  0  0  0  0  0  0  0
    2.5961  -51.0654  -26.8650 C   0  0  0  0  0  0  0  0  0  0  0  0
    2.0515  -52.4635  -26.8254 C   0  0  0  0  0  0  0  0  0  0  0  0
    2.0001  -52.8181  -25.3864 C   0  0  0  0  0  0  0  0  0  0  0  0
    0.7222  -52.5586  -27.4914 C   0  0  0  0  0  0  0  0  0  0  0  0
    0.6872  -52.8237  -28.8429 C   0  0  0  0  0  0  0  0  0  0  0  0
   -0.5345  -52.9278  -29.5164 C   0  0  0  0  0  0  0  0  0  0  0  0
   -1.6992  -52.7597  -28.8003 C   0  0  0  0  0  0  0  0  0  0  0  0
   -1.6387  -52.4968  -27.4578 C   0  0  0  0  0  0  0  0  0  0  0  0
   -2.8223  -52.3315  -26.7582 O   0  0  0  0  0  0  0  0  0  0  0  0
   -0.4287  -52.3895  -26.7698 C   0  0  0  0  0  0  0  0  0  0  0  0
   -3.7262  -52.3996  -27.2175 H   0  0  0  0  0  0  0  0  0  0  0  0
    3.1441  -52.1017  -23.4256 C   0  0  0  0  0  0  0  0  0  0  0  0
    2.3153  -50.9967  -22.8529 C   0  0  0  0  0  0  0  0  0  0  0  0
    1.1932  -51.4544  -21.9899 C   0  0  0  0  0  0  0  0  0  0  0  0
    0.8224  -52.8951  -22.1081 C   0  0  0  0  0  0  0  0  0  0  0  0
   -0.6550  -53.1309  -21.7035 C   0  0  0  0  0  0  0  0  0  0  0  0
   -0.9433  -52.4951  -20.3999 C   0  0  0  0  0  0  0  0  0  0  0  0
   -0.3246  -53.0183  -19.1775 C   0  0  0  0  0  0  0  0  0  0  0  0
   -0.3164  -51.4951  -17.2356 C   0  0  0  0  0  0  0  0  0  0  0  0
   -0.9088  -52.7147  -17.8469 C   0  0  0  0  0  0  0  0  0  0  0  0
 21 22  1  0  0  0
 22 20  1  0  0  0
 20 19  1  0  0  0
 19 18  1  0  0  0
 18 17  1  0  0  0
 17 16  1  0  0  0
 16 15  1  0  0  0
 15 14  1  0  0  0
 14  1  1  0  0  0
  1  2  1  0  0  0
  2  3  1  0  0  0
  3  4  1  0  0  0
  4  6  1  0  0  0
  6  7  2  0  0  0
  7  8  1  0  0  0
  8  9  2  0  0  0
  9 10  1  0  0  0
 10 11  1  0  0  0
 10 12  2  0  0  0
  4  5  1  0  0  0
  5  1  1  0  0  0
 12  6  1  0  0  0
 11 13  1  0  0  0
M  END
> <minimizedAffinity>
-5.96150

> <CNNscore>
0.4915201366

> <CNNaffinity>
6.1141943932

> <CNN_VS>
3.0052497387

> <CNNaffinity_variance>
0.2339678109

$$$$
[H]Oc1c([H])c([H])c([H])c(C2([H])C([H])([H])N(C([H])([H])C([H])([H])C([H])([H])C([H])([H])C([H])([H])C([H])([H])C([H])([H])C([H])([H])C([H])([H])[H])C([H])([H])C2([H])[H])c1[H]


 22 23  0  0  0  0  0  0  0  0999 V2000
    1.5427  -52.4359  -23.8225 N   0  0  0  0  0  0  0  0  0  0  0  0
    1.6072  -51.0650  -24.2497 C   0  0  0  0  0  0  0  0  0  0  0  0
    1.5007  -51.0767  -25.7540 C   0  0  0  0  0  0  0  0  0  0  0  0
    1.1333  -52.4930  -26.0887 C   0  0  0  0  0  0  0  0  0  0  0  0
    0.6677  -53.0842  -24.8109 C   0  0  0  0  0  0  0  0  0  0  0  0
    0.1044  -52.5584  -27.1641 C   0  0  0  0  0  0  0  0  0  0  0  0
    0.5247  -52.7883  -28.4559 C   0  0  0  0  0  0  0  0  0  0  0  0
   -0.4005  -52.8634  -29.5025 C   0  0  0  0  0  0  0  0  0  0  0  0
   -1.7379  -52.7030  -29.2140 C   0  0  0  0  0  0  0  0  0  0  0  0
   -2.1311  -52.4753  -27.9222 C   0  0  0  0  0  0  0  0  0  0  0  0
   -3.4807  -52.3170  -27.6557 O   0  0  0  0  0  0  0  0  0  0  0  0
   -1.2219  -52.3971  -26.8658 C   0  0  0  0  0  0  0  0  0  0  0  0
   -4.1782  -52.3647  -28.3931 H   0  0  0  0  0  0  0  0  0  0  0  0
    1.0405  -52.6339  -22.5033 C   0  0  0  0  0  0  0  0  0  0  0  0
   -0.3084  -53.2749  -22.4296 C   0  0  0  0  0  0  0  0  0  0  0  0
   -0.5556  -54.0441  -21.1803 C   0  0  0  0  0  0  0  0  0  0  0  0
    0.2980  -53.6839  -20.0105 C   0  0  0  0  0  0  0  0  0  0  0  0
   -0.4937  -52.8489  -18.9721 C   0  0  0  0  0  0  0  0  0  0  0  0
    0.1120  -51.5093  -18.8138 C   0  0  0  0  0  0  0  0  0  0  0  0
    1.5392  -51.3140  -19.0893 C   0  0  0  0  0  0  0  0  0  0  0  0
    0.8866  -49.5415  -20.6779 C   0  0  0  0  0  0  0  0  0  0  0  0
    1.9983  -50.1680  -19.9139 C   0  0  0  0  0  0  0  0  0  0  0  0
 21 22  1  0  0  0
 22 20  1  0  0  0
 20 19  1  0  0  0
 19 18  1  0  0  0
 18 17  1  0  0  0
 17 16  1  0  0  0
 16 15  1  0  0  0
 15 14  1  0  0  0
 14  1  1  0  0  0
  1  2  1  0  0  0
  2  3  1  0  0  0
  3  4  1  0  0  0
  4  6  1  0  0  0
  6  7  2  0  0  0
  7  8  1  0  0  0
  8  9  2  0  0  0
  9 10  1  0  0  0
 10 11  1  0  0  0
 10 12  2  0  0  0
  4  5  1  0  0  0
  5  1  1  0  0  0
 12  6  1  0  0  0
 11 13  1  0  0  0
M  END
> <minimizedAffinity>
-6.90572

> <CNNscore>
0.4473159611

> <CNNaffinity>
5.8385248184

> <CNN_VS>
2.6116652489

> <CNNaffinity_variance>
0.3456617892

$$$$
[H]Oc1c([H])c([H])c([H])c(C2([H])C([H])([H])N(C([H])([H])C([H])([H])C([H])([H])C([H])([H])C([H])([H])C([H])([H])C([H])([H])C([H])([H])C([H])([H])[H])C([H])([H])C2([H])[H])c1[H]


 22 23  0  0  0  0  0  0  0  0999 V2000
   -0.1837  -52.1997  -23.0428 N   0  0  0  0  0  0  0  0  0  0  0  0
   -0.0615  -53.6312  -23.0861 C   0  0  0  0  0  0  0  0  0  0  0  0
   -0.6158  -54.0712  -24.4178 C   0  0  0  0  0  0  0  0  0  0  0  0
   -0.8139  -52.7922  -25.1778 C   0  0  0  0  0  0  0  0  0  0  0  0
   -0.0203  -51.7782  -24.4423 C   0  0  0  0  0  0  0  0  0  0  0  0
   -0.4012  -52.9258  -26.6031 C   0  0  0  0  0  0  0  0  0  0  0  0
   -1.2916  -52.5357  -27.5794 C   0  0  0  0  0  0  0  0  0  0  0  0
   -0.9526  -52.6361  -28.9329 C   0  0  0  0  0  0  0  0  0  0  0  0
    0.2880  -53.1324  -29.2676 C   0  0  0  0  0  0  0  0  0  0  0  0
    1.1557  -53.5137  -28.2792 C   0  0  0  0  0  0  0  0  0  0  0  0
    2.3975  -54.0098  -28.6391 O   0  0  0  0  0  0  0  0  0  0  0  0
    0.8342  -53.4207  -26.9239 C   0  0  0  0  0  0  0  0  0  0  0  0
    2.6742  -54.0967  -29.6130 H   0  0  0  0  0  0  0  0  0  0  0  0
    0.7627  -51.5382  -22.2070 C   0  0  0  0  0  0  0  0  0  0  0  0
    1.3472  -52.3838  -21.1210 C   0  0  0  0  0  0  0  0  0  0  0  0
    1.0104  -51.9337  -19.7435 C   0  0  0  0  0  0  0  0  0  0  0  0
    0.4808  -50.5440  -19.6204 C   0  0  0  0  0  0  0  0  0  0  0  0
    1.0519  -49.8332  -18.3671 C   0  0  0  0  0  0  0  0  0  0  0  0
    2.4539  -49.4235  -18.5973 C   0  0  0  0  0  0  0  0  0  0  0  0
    2.8452  -48.8445  -19.8867 C   0  0  0  0  0  0  0  0  0  0  0  0
    3.4750  -46.7389  -18.7639 C   0  0  0  0  0  0  0  0  0  0  0  0
    3.0293  -47.3784  -20.0305 C   0  0  0  0  0  0  0  0  0  0  0  0
 21 22  1  0  0  0
 22 20  1  0  0  0
 20 19  1  0  0  0
 19 18  1  0  0  0
 18 17  1  0  0  0
 17 16  1  0  0  0
 16 15  1  0  0  0
 15 14  1  0  0  0
 14  1  1  0  0  0
  1  2  1  0  0  0
  2  3  1  0  0  0
  3  4  1  0  0  0
  4  6  1  0  0  0
  6  7  2  0  0  0
  7  8  1  0  0  0
  8  9  2  0  0  0
  9 10  1  0  0  0
 10 11  1  0  0  0
 10 12  2  0  0  0
  4  5  1  0  0  0
  5  1  1  0  0  0
 12  6  1  0  0  0
 11 13  1  0  0  0
M  END
> <minimizedAffinity>
-5.76430

> <CNNscore>
0.4319547117

> <CNNaffinity>
5.9413809776

> <CNN_VS>
2.5664074421

> <CNNaffinity_variance>
0.0381248370

$$$$
[H]OC(=O)/C([H])=C(\[H])c1c([H])c([H])c(Oc2c(-c3c([H])c([H])c(OC(F)(F)F)c([H])c3C([H])([H])[H])c(=O)oc3c([H])c(OC([H])([H])C([H])([H])[H])c([H])c([H])c23)c([H])c1[H]


 39 42  0  0  0  0  0  0  0  0999 V2000
    0.2166  -51.7908  -18.6864 C   0  0  0  0  0  0  0  0  0  0  0  0
   -0.3779  -52.9689  -19.0670 C   0  0  0  0  0  0  0  0  0  0  0  0
   -0.4231  -53.2804  -20.4082 C   0  0  0  0  0  0  0  0  0  0  0  0
    0.1075  -52.4492  -21.3745 C   0  0  0  0  0  0  0  0  0  0  0  0
    0.0689  -52.7609  -22.7444 C   0  0  0  0  0  0  0  0  0  0  0  0
    0.6470  -51.8296  -23.5825 C   0  0  0  0  0  0  0  0  0  0  0  0
    1.2380  -50.6494  -23.1357 C   0  0  0  0  0  0  0  0  0  0  0  0
    1.7567  -49.8252  -23.9499 O   0  0  0  0  0  0  0  0  0  0  0  0
    1.2417  -50.4179  -21.8577 O   0  0  0  0  0  0  0  0  0  0  0  0
    0.7044  -51.2705  -21.0016 C   0  0  0  0  0  0  0  0  0  0  0  0
    0.7460  -50.9623  -19.6453 C   0  0  0  0  0  0  0  0  0  0  0  0
    0.6458  -52.0323  -25.0164 C   0  0  0  0  0  0  0  0  0  0  0  0
    1.7255  -52.6162  -25.6096 C   0  0  0  0  0  0  0  0  0  0  0  0
    1.7552  -52.8256  -26.9651 C   0  0  0  0  0  0  0  0  0  0  0  0
    0.6800  -52.4395  -27.7278 C   0  0  0  0  0  0  0  0  0  0  0  0
   -0.4161  -51.8469  -27.1273 C   0  0  0  0  0  0  0  0  0  0  0  0
   -0.4280  -51.6457  -25.7723 C   0  0  0  0  0  0  0  0  0  0  0  0
   -1.6381  -51.0007  -25.2002 C   0  0  0  0  0  0  0  0  0  0  0  0
    0.7103  -52.6533  -29.1109 O   0  0  0  0  0  0  0  0  0  0  0  0
   -0.4803  -52.5813  -29.8874 C   0  0  0  0  0  0  0  0  0  0  0  0
   -1.4971  -53.1571  -29.1667 F   0  0  0  0  0  0  0  0  0  0  0  0
   -0.7758  -51.2570  -30.1531 F   0  0  0  0  0  0  0  0  0  0  0  0
   -0.3310  -53.2214  -31.1087 F   0  0  0  0  0  0  0  0  0  0  0  0
    0.2684  -51.4667  -17.3494 O   0  0  0  0  0  0  0  0  0  0  0  0
    0.3395  -49.2107  -16.5533 C   0  0  0  0  0  0  0  0  0  0  0  0
    1.1264  -50.4730  -16.8230 C   0  0  0  0  0  0  0  0  0  0  0  0
   -0.5162  -53.9145  -23.1094 O   0  0  0  0  0  0  0  0  0  0  0  0
   -0.3734  -54.8003  -24.1129 C   0  0  0  0  0  0  0  0  0  0  0  0
   -0.7907  -56.1050  -24.1138 C   0  0  0  0  0  0  0  0  0  0  0  0
   -0.6085  -56.9761  -25.1874 C   0  0  0  0  0  0  0  0  0  0  0  0
    0.0286  -56.5364  -26.3438 C   0  0  0  0  0  0  0  0  0  0  0  0
    0.4571  -55.2301  -26.3687 C   0  0  0  0  0  0  0  0  0  0  0  0
    0.2661  -54.3899  -25.2973 C   0  0  0  0  0  0  0  0  0  0  0  0
    0.2076  -57.4612  -27.4494 C   0  0  0  0  0  0  0  0  0  0  0  0
   -0.5380  -57.4729  -28.5355 C   0  0  0  0  0  0  0  0  0  0  0  0
   -0.2526  -58.4661  -29.5894 C   0  0  0  0  0  0  0  0  0  0  0  0
    0.8839  -58.9680  -29.7290 O   0  0  0  0  0  0  0  0  0  0  0  0
   -1.2485  -58.8681  -30.4561 O   0  0  0  0  0  0  0  0  0  0  0  0
   -1.6425  -59.8160  -30.4528 H   0  0  0  0  0  0  0  0  0  0  0  0
 25 26  1  0  0  0
 26 24  1  0  0  0
 24  1  1  0  0  0
  1  2  2  0  0  0
  2  3  1  0  0  0
  3  4  2  0  0  0
  4  5  1  0  0  0
  5 27  1  0  0  0
 27 28  1  0  0  0
 28 29  2  0  0  0
 29 30  1  0  0  0
 30 31  2  0  0  0
 31 34  1  0  0  0
 34 35  2  0  0  0
 35 36  1  0  0  0
 36 37  2  0  0  0
 36 38  1  0  0  0
 31 32  1  0  0  0
 32 33  2  0  0  0
  5  6  2  0  0  0
  6 12  1  0  0  0
 12 13  2  0  0  0
 13 14  1  0  0  0
 14 15  2  0  0  0
 15 19  1  0  0  0
 19 20  1  0  0  0
 20 21  1  0  0  0
 20 22  1  0  0  0
 20 23  1  0  0  0
 15 16  1  0  0  0
 16 17  2  0  0  0
 17 18  1  0  0  0
  6  7  1  0  0  0
  7  8  2  0  0  0
  7  9  1  0  0  0
  9 10  1  0  0  0
 10 11  2  0  0  0
 11  1  1  0  0  0
 10  4  1  0  0  0
 33 28  1  0  0  0
 17 12  1  0  0  0
 38 39  1  0  0  0
M  END
> <minimizedAffinity>
16.11578

> <CNNscore>
0.4798206091

> <CNNaffinity>
7.1528739929

> <CNN_VS>
3.4320962429

> <CNNaffinity_variance>
1.1715276241

$$$$
[H]OC(=O)/C([H])=C(\[H])c1c([H])c([H])c(Oc2c(-c3c([H])c([H])c(OC(F)(F)F)c([H])c3C([H])([H])[H])c(=O)oc3c([H])c(OC([H])([H])C([H])([H])[H])c([H])c([H])c23)c([H])c1[H]


 39 42  0  0  0  0  0  0  0  0999 V2000
   -2.2840  -51.4021  -21.0046 C   0  0  0  0  0  0  0  0  0  0  0  0
   -2.0957  -52.1370  -22.1495 C   0  0  0  0  0  0  0  0  0  0  0  0
   -0.9361  -51.9491  -22.8692 C   0  0  0  0  0  0  0  0  0  0  0  0
    0.0355  -51.0500  -22.4769 C   0  0  0  0  0  0  0  0  0  0  0  0
    1.2227  -50.8547  -23.2032 C   0  0  0  0  0  0  0  0  0  0  0  0
    2.0954  -49.9244  -22.6768 C   0  0  0  0  0  0  0  0  0  0  0  0
    1.8488  -49.2088  -21.5069 C   0  0  0  0  0  0  0  0  0  0  0  0
    2.6862  -48.3634  -21.0649 O   0  0  0  0  0  0  0  0  0  0  0  0
    0.7332  -49.4337  -20.8810 O   0  0  0  0  0  0  0  0  0  0  0  0
   -0.1452  -50.3127  -21.3330 C   0  0  0  0  0  0  0  0  0  0  0  0
   -1.3189  -50.5075  -20.6114 C   0  0  0  0  0  0  0  0  0  0  0  0
    3.3404  -49.6223  -23.3518 C   0  0  0  0  0  0  0  0  0  0  0  0
    3.3940  -48.5683  -24.2149 C   0  0  0  0  0  0  0  0  0  0  0  0
    4.5584  -48.2531  -24.8682 C   0  0  0  0  0  0  0  0  0  0  0  0
    5.6805  -49.0134  -24.6451 C   0  0  0  0  0  0  0  0  0  0  0  0
    5.6276  -50.0831  -23.7697 C   0  0  0  0  0  0  0  0  0  0  0  0
    4.4560  -50.3830  -23.1263 C   0  0  0  0  0  0  0  0  0  0  0  0
    4.4759  -51.5480  -22.2042 C   0  0  0  0  0  0  0  0  0  0  0  0
    6.8686  -48.6916  -25.3117 O   0  0  0  0  0  0  0  0  0  0  0  0
    7.0232  -47.4360  -25.9639 C   0  0  0  0  0  0  0  0  0  0  0  0
    5.8202  -46.7764  -25.9138 F   0  0  0  0  0  0  0  0  0  0  0  0
    7.9975  -46.6991  -25.3164 F   0  0  0  0  0  0  0  0  0  0  0  0
    7.4338  -47.5930  -27.2793 F   0  0  0  0  0  0  0  0  0  0  0  0
   -3.4384  -51.5794  -20.2758 O   0  0  0  0  0  0  0  0  0  0  0  0
   -2.8313  -52.1564  -18.0337 C   0  0  0  0  0  0  0  0  0  0  0  0
   -3.5831  -52.5713  -19.2779 C   0  0  0  0  0  0  0  0  0  0  0  0
    1.3991  -51.5759  -24.3234 O   0  0  0  0  0  0  0  0  0  0  0  0
    0.9315  -52.7398  -24.8121 C   0  0  0  0  0  0  0  0  0  0  0  0
    1.5149  -53.9721  -24.6801 C   0  0  0  0  0  0  0  0  0  0  0  0
    0.9808  -55.1438  -25.2155 C   0  0  0  0  0  0  0  0  0  0  0  0
   -0.2117  -55.1046  -25.9316 C   0  0  0  0  0  0  0  0  0  0  0  0
   -0.8181  -53.8793  -26.0784 C   0  0  0  0  0  0  0  0  0  0  0  0
   -0.2719  -52.7376  -25.5413 C   0  0  0  0  0  0  0  0  0  0  0  0
   -0.7494  -56.3373  -26.4804 C   0  0  0  0  0  0  0  0  0  0  0  0
   -1.0442  -57.4025  -25.7635 C   0  0  0  0  0  0  0  0  0  0  0  0
   -1.5858  -58.5956  -26.4429 C   0  0  0  0  0  0  0  0  0  0  0  0
   -1.3928  -58.8028  -27.6606 O   0  0  0  0  0  0  0  0  0  0  0  0
   -2.3278  -59.5219  -25.7385 O   0  0  0  0  0  0  0  0  0  0  0  0
   -1.9955  -60.4740  -25.5465 H   0  0  0  0  0  0  0  0  0  0  0  0
 25 26  1  0  0  0
 26 24  1  0  0  0
 24  1  1  0  0  0
  1  2  2  0  0  0
  2  3  1  0  0  0
  3  4  2  0  0  0
  4  5  1  0  0  0
  5 27  1  0  0  0
 27 28  1  0  0  0
 28 29  2  0  0  0
 29 30  1  0  0  0
 30 31  2  0  0  0
 31 34  1  0  0  0
 34 35  2  0  0  0
 35 36  1  0  0  0
 36 37  2  0  0  0
 36 38  1  0  0  0
 31 32  1  0  0  0
 32 33  2  0  0  0
  5  6  2  0  0  0
  6 12  1  0  0  0
 12 13  2  0  0  0
 13 14  1  0  0  0
 14 15  2  0  0  0
 15 19  1  0  0  0
 19 20  1  0  0  0
 20 21  1  0  0  0
 20 22  1  0  0  0
 20 23  1  0  0  0
 15 16  1  0  0  0
 16 17  2  0  0  0
 17 18  1  0  0  0
  6  7  1  0  0  0
  7  8  2  0  0  0
  7  9  1  0  0  0
  9 10  1  0  0  0
 10 11  2  0  0  0
 11  1  1  0  0  0
 10  4  1  0  0  0
 33 28  1  0  0  0
 17 12  1  0  0  0
 38 39  1  0  0  0
M  END
> <minimizedAffinity>
12.92485

> <CNNscore>
0.4107249081

> <CNNaffinity>
6.7645330429

> <CNN_VS>
2.7783622742

> <CNNaffinity_variance>
2.3815178871

$$$$
[H]OC(=O)/C([H])=C(\[H])c1c([H])c([H])c(Oc2c(-c3c([H])c([H])c(OC(F)(F)F)c([H])c3C([H])([H])[H])c(=O)oc3c([H])c(OC([H])([H])C([H])([H])[H])c([H])c([H])c23)c([H])c1[H]


 39 42  0  0  0  0  0  0  0  0999 V2000
   -0.0767  -51.8848  -16.8270 C   0  0  0  0  0  0  0  0  0  0  0  0
    1.0125  -51.3079  -17.4328 C   0  0  0  0  0  0  0  0  0  0  0  0
    1.1451  -51.4254  -18.7990 C   0  0  0  0  0  0  0  0  0  0  0  0
    0.2221  -52.1014  -19.5720 C   0  0  0  0  0  0  0  0  0  0  0  0
    0.3478  -52.2229  -20.9666 C   0  0  0  0  0  0  0  0  0  0  0  0
   -0.6605  -52.9242  -21.5953 C   0  0  0  0  0  0  0  0  0  0  0  0
   -1.7446  -53.4873  -20.9249 C   0  0  0  0  0  0  0  0  0  0  0  0
   -2.6465  -54.1234  -21.5519 O   0  0  0  0  0  0  0  0  0  0  0  0
   -1.8040  -53.3410  -19.6357 O   0  0  0  0  0  0  0  0  0  0  0  0
   -0.8698  -52.6796  -18.9737 C   0  0  0  0  0  0  0  0  0  0  0  0
   -0.9969  -52.5572  -17.5934 C   0  0  0  0  0  0  0  0  0  0  0  0
   -0.6252  -53.1340  -23.0278 C   0  0  0  0  0  0  0  0  0  0  0  0
   -0.7791  -52.0678  -23.8633 C   0  0  0  0  0  0  0  0  0  0  0  0
   -0.7476  -52.2314  -25.2250 C   0  0  0  0  0  0  0  0  0  0  0  0
   -0.5583  -53.4882  -25.7460 C   0  0  0  0  0  0  0  0  0  0  0  0
   -0.4020  -54.5710  -24.8995 C   0  0  0  0  0  0  0  0  0  0  0  0
   -0.4364  -54.3885  -23.5423 C   0  0  0  0  0  0  0  0  0  0  0  0
   -0.2647  -55.5989  -22.6979 C   0  0  0  0  0  0  0  0  0  0  0  0
   -0.5260  -53.6550  -27.1355 O   0  0  0  0  0  0  0  0  0  0  0  0
    0.6026  -53.2372  -27.8954 C   0  0  0  0  0  0  0  0  0  0  0  0
    1.5231  -52.6958  -27.0327 F   0  0  0  0  0  0  0  0  0  0  0  0
    1.1460  -54.3281  -28.5482 F   0  0  0  0  0  0  0  0  0  0  0  0
    0.2483  -52.3126  -28.8665 F   0  0  0  0  0  0  0  0  0  0  0  0
   -0.2215  -51.7756  -15.4623 O   0  0  0  0  0  0  0  0  0  0  0  0
   -1.5133  -49.7955  -15.0896 C   0  0  0  0  0  0  0  0  0  0  0  0
   -0.2336  -50.5375  -14.7784 C   0  0  0  0  0  0  0  0  0  0  0  0
    1.4172  -51.6575  -21.5520 O   0  0  0  0  0  0  0  0  0  0  0  0
    1.7860  -50.4113  -21.9030 C   0  0  0  0  0  0  0  0  0  0  0  0
    1.3722  -49.2438  -21.3180 C   0  0  0  0  0  0  0  0  0  0  0  0
    1.7890  -47.9792  -21.7323 C   0  0  0  0  0  0  0  0  0  0  0  0
    2.6759  -47.8498  -22.7968 C   0  0  0  0  0  0  0  0  0  0  0  0
    3.1070  -49.0070  -23.4015 C   0  0  0  0  0  0  0  0  0  0  0  0
    2.6817  -50.2429  -22.9751 C   0  0  0  0  0  0  0  0  0  0  0  0
    3.0962  -46.5227  -23.2113 C   0  0  0  0  0  0  0  0  0  0  0  0
    3.3195  -46.1714  -24.4613 C   0  0  0  0  0  0  0  0  0  0  0  0
    3.7438  -44.7878  -24.7515 C   0  0  0  0  0  0  0  0  0  0  0  0
    4.6943  -44.2505  -24.1424 O   0  0  0  0  0  0  0  0  0  0  0  0
    3.0912  -44.0465  -25.7154 O   0  0  0  0  0  0  0  0  0  0  0  0
    3.5315  -43.7706  -26.6007 H   0  0  0  0  0  0  0  0  0  0  0  0
 25 26  1  0  0  0
 26 24  1  0  0  0
 24  1  1  0  0  0
  1  2  2  0  0  0
  2  3  1  0  0  0
  3  4  2  0  0  0
  4  5  1  0  0  0
  5 27  1  0  0  0
 27 28  1  0  0  0
 28 29  2  0  0  0
 29 30  1  0  0  0
 30 31  2  0  0  0
 31 34  1  0  0  0
 34 35  2  0  0  0
 35 36  1  0  0  0
 36 37  2  0  0  0
 36 38  1  0  0  0
 31 32  1  0  0  0
 32 33  2  0  0  0
  5  6  2  0  0  0
  6 12  1  0  0  0
 12 13  2  0  0  0
 13 14  1  0  0  0
 14 15  2  0  0  0
 15 19  1  0  0  0
 19 20  1  0  0  0
 20 21  1  0  0  0
 20 22  1  0  0  0
 20 23  1  0  0  0
 15 16  1  0  0  0
 16 17  2  0  0  0
 17 18  1  0  0  0
  6  7  1  0  0  0
  7  8  2  0  0  0
  7  9  1  0  0  0
  9 10  1  0  0  0
 10 11  2  0  0  0
 11  1  1  0  0  0
 10  4  1  0  0  0
 33 28  1  0  0  0
 17 12  1  0  0  0
 38 39  1  0  0  0
M  END
> <minimizedAffinity>
-7.29048

> <CNNscore>
0.3942490220

> <CNNaffinity>
7.1358003616

> <CNN_VS>
2.8132822514

> <CNNaffinity_variance>
0.4490590990

$$$$
[H]OC(=O)/C([H])=C(\[H])c1c([H])c([H])c(Oc2c(-c3c([H])c([H])c(OC(F)(F)F)c([H])c3C([H])([H])[H])c(=O)oc3c([H])c(OC([H])([H])C([H])([H])[H])c([H])c([H])c23)c([H])c1[H]


 39 42  0  0  0  0  0  0  0  0999 V2000
   -1.3794  -53.1804  -19.6203 C   0  0  0  0  0  0  0  0  0  0  0  0
   -0.6728  -53.7929  -20.6262 C   0  0  0  0  0  0  0  0  0  0  0  0
    0.3738  -53.1099  -21.2059 C   0  0  0  0  0  0  0  0  0  0  0  0
    0.7310  -51.8367  -20.8088 C   0  0  0  0  0  0  0  0  0  0  0  0
    1.7994  -51.1343  -21.3922 C   0  0  0  0  0  0  0  0  0  0  0  0
    2.0325  -49.8743  -20.8802 C   0  0  0  0  0  0  0  0  0  0  0  0
    1.2799  -49.3053  -19.8548 C   0  0  0  0  0  0  0  0  0  0  0  0
    1.5367  -48.1409  -19.4196 O   0  0  0  0  0  0  0  0  0  0  0  0
    0.3052  -50.0045  -19.3570 O   0  0  0  0  0  0  0  0  0  0  0  0
    0.0301  -51.2184  -19.8031 C   0  0  0  0  0  0  0  0  0  0  0  0
   -1.0259  -51.9142  -19.2226 C   0  0  0  0  0  0  0  0  0  0  0  0
    3.0925  -49.0480  -21.4195 C   0  0  0  0  0  0  0  0  0  0  0  0
    2.8031  -47.7882  -21.8527 C   0  0  0  0  0  0  0  0  0  0  0  0
    3.7843  -46.9785  -22.3660 C   0  0  0  0  0  0  0  0  0  0  0  0
    5.0724  -47.4496  -22.4413 C   0  0  0  0  0  0  0  0  0  0  0  0
    5.3676  -48.7276  -22.0021 C   0  0  0  0  0  0  0  0  0  0  0  0
    4.3748  -49.5220  -21.4926 C   0  0  0  0  0  0  0  0  0  0  0  0
    4.7678  -50.8831  -21.0445 C   0  0  0  0  0  0  0  0  0  0  0  0
    6.0736  -46.6232  -22.9649 O   0  0  0  0  0  0  0  0  0  0  0  0
    6.1452  -45.2470  -22.6089 C   0  0  0  0  0  0  0  0  0  0  0  0
    4.9017  -44.8493  -22.1840 F   0  0  0  0  0  0  0  0  0  0  0  0
    7.0700  -45.0827  -21.5944 F   0  0  0  0  0  0  0  0  0  0  0  0
    6.5637  -44.4663  -23.6761 F   0  0  0  0  0  0  0  0  0  0  0  0
   -2.4280  -53.8511  -19.0324 O   0  0  0  0  0  0  0  0  0  0  0  0
   -3.1276  -52.9059  -16.9478 C   0  0  0  0  0  0  0  0  0  0  0  0
   -2.5110  -54.0987  -17.6423 C   0  0  0  0  0  0  0  0  0  0  0  0
    2.4849  -51.7393  -22.3772 O   0  0  0  0  0  0  0  0  0  0  0  0
    2.1989  -52.2368  -23.5949 C   0  0  0  0  0  0  0  0  0  0  0  0
    1.0046  -52.1328  -24.2578 C   0  0  0  0  0  0  0  0  0  0  0  0
    0.7693  -52.6759  -25.5205 C   0  0  0  0  0  0  0  0  0  0  0  0
    1.7777  -53.3710  -26.1812 C   0  0  0  0  0  0  0  0  0  0  0  0
    2.9868  -53.4896  -25.5372 C   0  0  0  0  0  0  0  0  0  0  0  0
    3.1950  -52.9453  -24.2920 C   0  0  0  0  0  0  0  0  0  0  0  0
    1.5100  -53.9284  -27.4955 C   0  0  0  0  0  0  0  0  0  0  0  0
    2.1473  -53.5782  -28.5941 C   0  0  0  0  0  0  0  0  0  0  0  0
    1.7801  -54.2213  -29.8708 C   0  0  0  0  0  0  0  0  0  0  0  0
    0.6463  -54.0766  -30.3774 O   0  0  0  0  0  0  0  0  0  0  0  0
    2.6937  -55.0076  -30.5430 O   0  0  0  0  0  0  0  0  0  0  0  0
    3.1061  -54.7386  -31.4437 H   0  0  0  0  0  0  0  0  0  0  0  0
 25 26  1  0  0  0
 26 24  1  0  0  0
 24  1  1  0  0  0
  1  2  2  0  0  0
  2  3  1  0  0  0
  3  4  2  0  0  0
  4  5  1  0  0  0
  5 27  1  0  0  0
 27 28  1  0  0  0
 28 29  2  0  0  0
 29 30  1  0  0  0
 30 31  2  0  0  0
 31 34  1  0  0  0
 34 35  2  0  0  0
 35 36  1  0  0  0
 36 37  2  0  0  0
 36 38  1  0  0  0
 31 32  1  0  0  0
 32 33  2  0  0  0
  5  6  2  0  0  0
  6 12  1  0  0  0
 12 13  2  0  0  0
 13 14  1  0  0  0
 14 15  2  0  0  0
 15 19  1  0  0  0
 19 20  1  0  0  0
 20 21  1  0  0  0
 20 22  1  0  0  0
 20 23  1  0  0  0
 15 16  1  0  0  0
 16 17  2  0  0  0
 17 18  1  0  0  0
  6  7  1  0  0  0
  7  8  2  0  0  0
  7  9  1  0  0  0
  9 10  1  0  0  0
 10 11  2  0  0  0
 11  1  1  0  0  0
 10  4  1  0  0  0
 33 28  1  0  0  0
 17 12  1  0  0  0
 38 39  1  0  0  0
M  END
> <minimizedAffinity>
-0.71511

> <CNNscore>
0.3753435016

> <CNNaffinity>
6.9528465271

> <CNN_VS>
2.6097056866

> <CNNaffinity_variance>
1.8992316723

$$$$
[H]OC(=O)/C([H])=C(\[H])c1c([H])c([H])c(Oc2c(-c3c([H])c([H])c(OC(F)(F)F)c([H])c3C([H])([H])[H])c(=O)oc3c([H])c(OC([H])([H])C([H])([H])[H])c([H])c([H])c23)c([H])c1[H]


 39 42  0  0  0  0  0  0  0  0999 V2000
    3.0111  -51.3829  -19.1150 C   0  0  0  0  0  0  0  0  0  0  0  0
    3.8745  -50.8936  -20.0644 C   0  0  0  0  0  0  0  0  0  0  0  0
    3.5870  -51.1166  -21.3932 C   0  0  0  0  0  0  0  0  0  0  0  0
    2.4648  -51.8129  -21.7961 C   0  0  0  0  0  0  0  0  0  0  0  0
    2.1622  -52.0418  -23.1494 C   0  0  0  0  0  0  0  0  0  0  0  0
    1.0018  -52.7494  -23.3875 C   0  0  0  0  0  0  0  0  0  0  0  0
    0.1631  -53.2203  -22.3793 C   0  0  0  0  0  0  0  0  0  0  0  0
   -0.8944  -53.8668  -22.6530 O   0  0  0  0  0  0  0  0  0  0  0  0
    0.4974  -52.9770  -21.1481 O   0  0  0  0  0  0  0  0  0  0  0  0
    1.5966  -52.3040  -20.8528 C   0  0  0  0  0  0  0  0  0  0  0  0
    1.8936  -52.0751  -19.5128 C   0  0  0  0  0  0  0  0  0  0  0  0
    0.6005  -53.0657  -24.7425 C   0  0  0  0  0  0  0  0  0  0  0  0
    0.8705  -54.3027  -25.2480 C   0  0  0  0  0  0  0  0  0  0  0  0
    0.5012  -54.6357  -26.5265 C   0  0  0  0  0  0  0  0  0  0  0  0
   -0.1484  -53.7060  -27.3014 C   0  0  0  0  0  0  0  0  0  0  0  0
   -0.4230  -52.4504  -26.7899 C   0  0  0  0  0  0  0  0  0  0  0  0
   -0.0466  -52.1357  -25.5110 C   0  0  0  0  0  0  0  0  0  0  0  0
   -0.3727  -50.7672  -25.0329 C   0  0  0  0  0  0  0  0  0  0  0  0
   -0.5253  -54.0459  -28.6060 O   0  0  0  0  0  0  0  0  0  0  0  0
   -1.1342  -53.0870  -29.4637 C   0  0  0  0  0  0  0  0  0  0  0  0
   -0.1504  -52.2626  -29.9511 F   0  0  0  0  0  0  0  0  0  0  0  0
   -1.7677  -53.7394  -30.5052 F   0  0  0  0  0  0  0  0  0  0  0  0
   -2.0983  -52.3466  -28.7962 F   0  0  0  0  0  0  0  0  0  0  0  0
    3.2862  -51.1677  -17.7834 O   0  0  0  0  0  0  0  0  0  0  0  0
    3.0980  -50.2700  -15.5728 C   0  0  0  0  0  0  0  0  0  0  0  0
    2.6795  -50.1432  -17.0198 C   0  0  0  0  0  0  0  0  0  0  0  0
    3.0127  -51.5617  -24.0726 O   0  0  0  0  0  0  0  0  0  0  0  0
    3.1708  -50.4014  -24.7365 C   0  0  0  0  0  0  0  0  0  0  0  0
    3.2769  -49.1532  -24.1821 C   0  0  0  0  0  0  0  0  0  0  0  0
    3.4355  -47.9852  -24.9273 C   0  0  0  0  0  0  0  0  0  0  0  0
    3.4946  -48.0452  -26.3163 C   0  0  0  0  0  0  0  0  0  0  0  0
    3.3909  -49.2868  -26.8980 C   0  0  0  0  0  0  0  0  0  0  0  0
    3.2349  -50.4245  -26.1420 C   0  0  0  0  0  0  0  0  0  0  0  0
    3.6600  -46.8159  -27.0721 C   0  0  0  0  0  0  0  0  0  0  0  0
    2.9840  -46.5186  -28.1631 C   0  0  0  0  0  0  0  0  0  0  0  0
    3.2459  -45.2336  -28.8401 C   0  0  0  0  0  0  0  0  0  0  0  0
    3.7982  -44.2801  -28.2493 O   0  0  0  0  0  0  0  0  0  0  0  0
    2.8817  -45.0539  -30.1591 O   0  0  0  0  0  0  0  0  0  0  0  0
    3.5652  -44.9506  -30.9180 H   0  0  0  0  0  0  0  0  0  0  0  0
 25 26  1  0  0  0
 26 24  1  0  0  0
 24  1  1  0  0  0
  1  2  2  0  0  0
  2  3  1  0  0  0
  3  4  2  0  0  0
  4  5  1  0  0  0
  5 27  1  0  0  0
 27 28  1  0  0  0
 28 29  2  0  0  0
 29 30  1  0  0  0
 30 31  2  0  0  0
 31 34  1  0  0  0
 34 35  2  0  0  0
 35 36  1  0  0  0
 36 37  2  0  0  0
 36 38  1  0  0  0
 31 32  1  0  0  0
 32 33  2  0  0  0
  5  6  2  0  0  0
  6 12  1  0  0  0
 12 13  2  0  0  0
 13 14  1  0  0  0
 14 15  2  0  0  0
 15 19  1  0  0  0
 19 20  1  0  0  0
 20 21  1  0  0  0
 20 22  1  0  0  0
 20 23  1  0  0  0
 15 16  1  0  0  0
 16 17  2  0  0  0
 17 18  1  0  0  0
  6  7  1  0  0  0
  7  8  2  0  0  0
  7  9  1  0  0  0
  9 10  1  0  0  0
 10 11  2  0  0  0
 11  1  1  0  0  0
 10  4  1  0  0  0
 33 28  1  0  0  0
 17 12  1  0  0  0
 38 39  1  0  0  0
M  END
> <minimizedAffinity>
-7.29376

> <CNNscore>
0.3714347780

> <CNNaffinity>
6.8732986450

> <CNN_VS>
2.5529820919

> <CNNaffinity_variance>
0.6939126253

$$$$
[H]OC(=O)/C([H])=C(\[H])c1c([H])c([H])c(Oc2c(-c3c([H])c([H])c(OC(F)(F)F)c([H])c3C([H])([H])[H])c(=O)oc3c([H])c(OC([H])([H])C([H])([H])[H])c([H])c([H])c23)c([H])c1[H]


 39 42  0  0  0  0  0  0  0  0999 V2000
    0.8978  -50.2132  -24.9806 C   0  0  0  0  0  0  0  0  0  0  0  0
    0.6996  -51.2029  -24.0492 C   0  0  0  0  0  0  0  0  0  0  0  0
    1.0751  -50.9648  -22.7453 C   0  0  0  0  0  0  0  0  0  0  0  0
    1.6411  -49.7692  -22.3496 C   0  0  0  0  0  0  0  0  0  0  0  0
    2.0237  -49.5167  -21.0210 C   0  0  0  0  0  0  0  0  0  0  0  0
    2.5697  -48.2714  -20.7862 C   0  0  0  0  0  0  0  0  0  0  0  0
    2.7448  -47.3054  -21.7750 C   0  0  0  0  0  0  0  0  0  0  0  0
    3.2526  -46.1737  -21.5053 O   0  0  0  0  0  0  0  0  0  0  0  0
    2.3717  -47.5990  -22.9838 O   0  0  0  0  0  0  0  0  0  0  0  0
    1.8412  -48.7748  -23.2747 C   0  0  0  0  0  0  0  0  0  0  0  0
    1.4599  -49.0226  -24.5897 C   0  0  0  0  0  0  0  0  0  0  0  0
    3.0224  -47.9073  -19.4597 C   0  0  0  0  0  0  0  0  0  0  0  0
    2.3543  -48.3842  -18.3712 C   0  0  0  0  0  0  0  0  0  0  0  0
    2.7588  -48.0610  -17.1008 C   0  0  0  0  0  0  0  0  0  0  0  0
    3.8515  -47.2462  -16.9310 C   0  0  0  0  0  0  0  0  0  0  0  0
    4.5304  -46.7615  -18.0344 C   0  0  0  0  0  0  0  0  0  0  0  0
    4.1119  -47.0948  -19.2955 C   0  0  0  0  0  0  0  0  0  0  0  0
    4.8890  -46.5334  -20.4307 C   0  0  0  0  0  0  0  0  0  0  0  0
    4.2643  -46.9166  -15.6346 O   0  0  0  0  0  0  0  0  0  0  0  0
    3.7219  -45.7864  -14.9605 C   0  0  0  0  0  0  0  0  0  0  0  0
    2.3595  -45.8004  -15.1291 F   0  0  0  0  0  0  0  0  0  0  0  0
    4.0360  -45.8594  -13.6160 F   0  0  0  0  0  0  0  0  0  0  0  0
    4.2564  -44.6011  -15.4430 F   0  0  0  0  0  0  0  0  0  0  0  0
    0.5277  -50.4377  -26.2874 O   0  0  0  0  0  0  0  0  0  0  0  0
    2.6842  -50.2887  -27.3146 C   0  0  0  0  0  0  0  0  0  0  0  0
    1.3766  -51.0438  -27.2427 C   0  0  0  0  0  0  0  0  0  0  0  0
    1.8285  -50.4906  -20.1157 O   0  0  0  0  0  0  0  0  0  0  0  0
    2.4098  -50.8765  -18.9645 C   0  0  0  0  0  0  0  0  0  0  0  0
    3.7511  -50.8682  -18.6862 C   0  0  0  0  0  0  0  0  0  0  0  0
    4.2929  -51.2862  -17.4711 C   0  0  0  0  0  0  0  0  0  0  0  0
    3.4598  -51.7453  -16.4555 C   0  0  0  0  0  0  0  0  0  0  0  0
    2.1085  -51.7634  -16.7095 C   0  0  0  0  0  0  0  0  0  0  0  0
    1.5977  -51.3462  -17.9158 C   0  0  0  0  0  0  0  0  0  0  0  0
    4.0462  -52.1759  -15.1984 C   0  0  0  0  0  0  0  0  0  0  0  0
    4.0151  -53.4144  -14.7504 C   0  0  0  0  0  0  0  0  0  0  0  0
    4.6497  -53.7233  -13.4542 C   0  0  0  0  0  0  0  0  0  0  0  0
    4.3266  -54.7306  -12.7877 O   0  0  0  0  0  0  0  0  0  0  0  0
    5.6278  -52.8951  -12.9423 O   0  0  0  0  0  0  0  0  0  0  0  0
    6.6102  -53.1793  -12.8541 H   0  0  0  0  0  0  0  0  0  0  0  0
 25 26  1  0  0  0
 26 24  1  0  0  0
 24  1  1  0  0  0
  1  2  2  0  0  0
  2  3  1  0  0  0
  3  4  2  0  0  0
  4  5  1  0  0  0
  5 27  1  0  0  0
 27 28  1  0  0  0
 28 29  2  0  0  0
 29 30  1  0  0  0
 30 31  2  0  0  0
 31 34  1  0  0  0
 34 35  2  0  0  0
 35 36  1  0  0  0
 36 37  2  0  0  0
 36 38  1  0  0  0
 31 32  1  0  0  0
 32 33  2  0  0  0
  5  6  2  0  0  0
  6 12  1  0  0  0
 12 13  2  0  0  0
 13 14  1  0  0  0
 14 15  2  0  0  0
 15 19  1  0  0  0
 19 20  1  0  0  0
 20 21  1  0  0  0
 20 22  1  0  0  0
 20 23  1  0  0  0
 15 16  1  0  0  0
 16 17  2  0  0  0
 17 18  1  0  0  0
  6  7  1  0  0  0
  7  8  2  0  0  0
  7  9  1  0  0  0
  9 10  1  0  0  0
 10 11  2  0  0  0
 11  1  1  0  0  0
 10  4  1  0  0  0
 33 28  1  0  0  0
 17 12  1  0  0  0
 38 39  1  0  0  0
M  END
> <minimizedAffinity>
5.60996

> <CNNscore>
0.3573630452

> <CNNaffinity>
6.0318837166

> <CNN_VS>
2.1555724144

> <CNNaffinity_variance>
1.6333475113

$$$$
[H]OC(=O)/C([H])=C(\[H])c1c([H])c([H])c(Oc2c(-c3c([H])c([H])c(OC(F)(F)F)c([H])c3C([H])([H])[H])c(=O)oc3c([H])c(OC([H])([H])C([H])([H])[H])c([H])c([H])c23)c([H])c1[H]


 39 42  0  0  0  0  0  0  0  0999 V2000
   -0.2084  -52.5814  -17.8626 C   0  0  0  0  0  0  0  0  0  0  0  0
    1.0123  -52.1919  -18.3569 C   0  0  0  0  0  0  0  0  0  0  0  0
    1.2261  -52.2649  -19.7160 C   0  0  0  0  0  0  0  0  0  0  0  0
    0.2565  -52.7151  -20.5898 C   0  0  0  0  0  0  0  0  0  0  0  0
    0.4649  -52.7894  -21.9777 C   0  0  0  0  0  0  0  0  0  0  0  0
   -0.6042  -53.2554  -22.7152 C   0  0  0  0  0  0  0  0  0  0  0  0
   -1.8223  -53.6354  -22.1553 C   0  0  0  0  0  0  0  0  0  0  0  0
   -2.7752  -54.0577  -22.8798 O   0  0  0  0  0  0  0  0  0  0  0  0
   -1.9531  -53.5442  -20.8663 O   0  0  0  0  0  0  0  0  0  0  0  0
   -0.9666  -53.1050  -20.1031 C   0  0  0  0  0  0  0  0  0  0  0  0
   -1.1751  -53.0289  -18.7295 C   0  0  0  0  0  0  0  0  0  0  0  0
   -0.4977  -53.3973  -24.1525 C   0  0  0  0  0  0  0  0  0  0  0  0
   -0.6458  -52.2981  -24.9452 C   0  0  0  0  0  0  0  0  0  0  0  0
   -0.5477  -52.3973  -26.3100 C   0  0  0  0  0  0  0  0  0  0  0  0
   -0.2970  -53.6226  -26.8778 C   0  0  0  0  0  0  0  0  0  0  0  0
   -0.1465  -54.7387  -26.0747 C   0  0  0  0  0  0  0  0  0  0  0  0
   -0.2479  -54.6206  -24.7138 C   0  0  0  0  0  0  0  0  0  0  0  0
   -0.0780  -55.8637  -23.9177 C   0  0  0  0  0  0  0  0  0  0  0  0
   -0.1969  -53.7237  -28.2704 O   0  0  0  0  0  0  0  0  0  0  0  0
   -1.1215  -53.0533  -29.1198 C   0  0  0  0  0  0  0  0  0  0  0  0
   -1.3775  -53.8636  -30.1981 F   0  0  0  0  0  0  0  0  0  0  0  0
   -2.2894  -52.8058  -28.4225 F   0  0  0  0  0  0  0  0  0  0  0  0
   -0.6283  -51.8280  -29.5425 F   0  0  0  0  0  0  0  0  0  0  0  0
   -0.4356  -52.5141  -16.5065 O   0  0  0  0  0  0  0  0  0  0  0  0
   -1.0642  -50.3321  -15.7501 C   0  0  0  0  0  0  0  0  0  0  0  0
   -0.0224  -51.4265  -15.7020 C   0  0  0  0  0  0  0  0  0  0  0  0
    1.6625  -52.4085  -22.4538 O   0  0  0  0  0  0  0  0  0  0  0  0
    2.1131  -51.7725  -23.5514 C   0  0  0  0  0  0  0  0  0  0  0  0
    2.7184  -52.3492  -24.6365 C   0  0  0  0  0  0  0  0  0  0  0  0
    3.1684  -51.6323  -25.7447 C   0  0  0  0  0  0  0  0  0  0  0  0
    3.0135  -50.2502  -25.7929 C   0  0  0  0  0  0  0  0  0  0  0  0
    2.4083  -49.6466  -24.7158 C   0  0  0  0  0  0  0  0  0  0  0  0
    1.9729  -50.3748  -23.6341 C   0  0  0  0  0  0  0  0  0  0  0  0
    3.4899  -49.5240  -26.9571 C   0  0  0  0  0  0  0  0  0  0  0  0
    3.5494  -48.2105  -27.0395 C   0  0  0  0  0  0  0  0  0  0  0  0
    4.0544  -47.5930  -28.2813 C   0  0  0  0  0  0  0  0  0  0  0  0
    4.1215  -46.3521  -28.4181 O   0  0  0  0  0  0  0  0  0  0  0  0
    4.4696  -48.3835  -29.3336 O   0  0  0  0  0  0  0  0  0  0  0  0
    5.4500  -48.4470  -29.6313 H   0  0  0  0  0  0  0  0  0  0  0  0
 25 26  1  0  0  0
 26 24  1  0  0  0
 24  1  1  0  0  0
  1  2  2  0  0  0
  2  3  1  0  0  0
  3  4  2  0  0  0
  4  5  1  0  0  0
  5 27  1  0  0  0
 27 28  1  0  0  0
 28 29  2  0  0  0
 29 30  1  0  0  0
 30 31  2  0  0  0
 31 34  1  0  0  0
 34 35  2  0  0  0
 35 36  1  0  0  0
 36 37  2  0  0  0
 36 38  1  0  0  0
 31 32  1  0  0  0
 32 33  2  0  0  0
  5  6  2  0  0  0
  6 12  1  0  0  0
 12 13  2  0  0  0
 13 14  1  0  0  0
 14 15  2  0  0  0
 15 19  1  0  0  0
 19 20  1  0  0  0
 20 21  1  0  0  0
 20 22  1  0  0  0
 20 23  1  0  0  0
 15 16  1  0  0  0
 16 17  2  0  0  0
 17 18  1  0  0  0
  6  7  1  0  0  0
  7  8  2  0  0  0
  7  9  1  0  0  0
  9 10  1  0  0  0
 10 11  2  0  0  0
 11  1  1  0  0  0
 10  4  1  0  0  0
 33 28  1  0  0  0
 17 12  1  0  0  0
 38 39  1  0  0  0
M  END
> <minimizedAffinity>
-5.87677

> <CNNscore>
0.3462468684

> <CNNaffinity>
6.8413162231

> <CNN_VS>
2.3687844276

> <CNNaffinity_variance>
0.5231483579

$$$$
[H]OC(=O)/C([H])=C(\[H])c1c([H])c([H])c(Oc2c(-c3c([H])c([H])c(OC(F)(F)F)c([H])c3C([H])([H])[H])c(=O)oc3c([H])c(OC([H])([H])C([H])([H])[H])c([H])c([H])c23)c([H])c1[H]


 39 42  0  0  0  0  0  0  0  0999 V2000
    0.3282  -49.8981  -14.7265 C   0  0  0  0  0  0  0  0  0  0  0  0
   -0.4250  -51.0110  -15.0102 C   0  0  0  0  0  0  0  0  0  0  0  0
   -0.3683  -51.5378  -16.2819 C   0  0  0  0  0  0  0  0  0  0  0  0
    0.4175  -50.9840  -17.2730 C   0  0  0  0  0  0  0  0  0  0  0  0
    0.4839  -51.5171  -18.5717 C   0  0  0  0  0  0  0  0  0  0  0  0
    1.3194  -50.8516  -19.4453 C   0  0  0  0  0  0  0  0  0  0  0  0
    2.0616  -49.7247  -19.0978 C   0  0  0  0  0  0  0  0  0  0  0  0
    2.8165  -49.1496  -19.9407 O   0  0  0  0  0  0  0  0  0  0  0  0
    1.9571  -49.2798  -17.8821 O   0  0  0  0  0  0  0  0  0  0  0  0
    1.1740  -49.8722  -16.9966 C   0  0  0  0  0  0  0  0  0  0  0  0
    1.1113  -49.3455  -15.7102 C   0  0  0  0  0  0  0  0  0  0  0  0
    1.4501  -51.2960  -20.8174 C   0  0  0  0  0  0  0  0  0  0  0  0
    2.4776  -52.1255  -21.1562 C   0  0  0  0  0  0  0  0  0  0  0  0
    2.6283  -52.5673  -22.4462 C   0  0  0  0  0  0  0  0  0  0  0  0
    1.7289  -52.1648  -23.4032 C   0  0  0  0  0  0  0  0  0  0  0  0
    0.6858  -51.3232  -23.0609 C   0  0  0  0  0  0  0  0  0  0  0  0
    0.5512  -50.8920  -21.7677 C   0  0  0  0  0  0  0  0  0  0  0  0
   -0.5913  -49.9876  -21.4773 C   0  0  0  0  0  0  0  0  0  0  0  0
    1.8827  -52.6158  -24.7194 O   0  0  0  0  0  0  0  0  0  0  0  0
    0.8341  -53.3171  -25.3785 C   0  0  0  0  0  0  0  0  0  0  0  0
    1.3484  -53.8840  -26.5182 F   0  0  0  0  0  0  0  0  0  0  0  0
    0.3402  -54.2989  -24.5396 F   0  0  0  0  0  0  0  0  0  0  0  0
   -0.2227  -52.4755  -25.6920 F   0  0  0  0  0  0  0  0  0  0  0  0
    0.2808  -49.3608  -13.4599 O   0  0  0  0  0  0  0  0  0  0  0  0
    1.0605  -47.1456  -12.9982 C   0  0  0  0  0  0  0  0  0  0  0  0
    1.3449  -48.6261  -12.8867 C   0  0  0  0  0  0  0  0  0  0  0  0
   -0.2574  -52.6049  -18.8423 O   0  0  0  0  0  0  0  0  0  0  0  0
   -0.4809  -53.3845  -19.9168 C   0  0  0  0  0  0  0  0  0  0  0  0
   -1.6526  -53.4884  -20.6186 C   0  0  0  0  0  0  0  0  0  0  0  0
   -1.8223  -54.3206  -21.7247 C   0  0  0  0  0  0  0  0  0  0  0  0
   -0.7668  -55.1076  -22.1754 C   0  0  0  0  0  0  0  0  0  0  0  0
    0.4210  -55.0216  -21.4882 C   0  0  0  0  0  0  0  0  0  0  0  0
    0.5641  -54.1935  -20.4001 C   0  0  0  0  0  0  0  0  0  0  0  0
   -0.9663  -55.9671  -23.3292 C   0  0  0  0  0  0  0  0  0  0  0  0
   -0.4660  -55.7323  -24.5251 C   0  0  0  0  0  0  0  0  0  0  0  0
   -0.7428  -56.6859  -25.6171 C   0  0  0  0  0  0  0  0  0  0  0  0
    0.1780  -57.2137  -26.2780 O   0  0  0  0  0  0  0  0  0  0  0  0
   -2.0429  -57.0207  -25.9369 O   0  0  0  0  0  0  0  0  0  0  0  0
   -2.4341  -57.9561  -25.7768 H   0  0  0  0  0  0  0  0  0  0  0  0
 25 26  1  0  0  0
 26 24  1  0  0  0
 24  1  1  0  0  0
  1  2  2  0  0  0
  2  3  1  0  0  0
  3  4  2  0  0  0
  4  5  1  0  0  0
  5 27  1  0  0  0
 27 28  1  0  0  0
 28 29  2  0  0  0
 29 30  1  0  0  0
 30 31  2  0  0  0
 31 34  1  0  0  0
 34 35  2  0  0  0
 35 36  1  0  0  0
 36 37  2  0  0  0
 36 38  1  0  0  0
 31 32  1  0  0  0
 32 33  2  0  0  0
  5  6  2  0  0  0
  6 12  1  0  0  0
 12 13  2  0  0  0
 13 14  1  0  0  0
 14 15  2  0  0  0
 15 19  1  0  0  0
 19 20  1  0  0  0
 20 21  1  0  0  0
 20 22  1  0  0  0
 20 23  1  0  0  0
 15 16  1  0  0  0
 16 17  2  0  0  0
 17 18  1  0  0  0
  6  7  1  0  0  0
  7  8  2  0  0  0
  7  9  1  0  0  0
  9 10  1  0  0  0
 10 11  2  0  0  0
 11  1  1  0  0  0
 10  4  1  0  0  0
 33 28  1  0  0  0
 17 12  1  0  0  0
 38 39  1  0  0  0
M  END
> <minimizedAffinity>
-0.74960

> <CNNscore>
0.2830332518

> <CNNaffinity>
6.4287405014

> <CNN_VS>
1.8195472956

> <CNNaffinity_variance>
0.6789063811

$$$$
[H]OC(=O)/C([H])=C(\[H])c1c([H])c([H])c(Oc2c(-c3c([H])c([H])c(OC(F)(F)F)c([H])c3C([H])([H])[H])c(=O)oc3c([H])c(OC([H])([H])C([H])([H])[H])c([H])c([H])c23)c([H])c1[H]


 39 42  0  0  0  0  0  0  0  0999 V2000
   -1.2008  -53.0567  -18.9666 C   0  0  0  0  0  0  0  0  0  0  0  0
   -0.6387  -51.8476  -19.2960 C   0  0  0  0  0  0  0  0  0  0  0  0
   -0.3204  -51.6070  -20.6146 C   0  0  0  0  0  0  0  0  0  0  0  0
   -0.5477  -52.5386  -21.6079 C   0  0  0  0  0  0  0  0  0  0  0  0
   -0.2293  -52.3000  -22.9559 C   0  0  0  0  0  0  0  0  0  0  0  0
   -0.5230  -53.3288  -23.8272 C   0  0  0  0  0  0  0  0  0  0  0  0
   -1.0962  -54.5359  -23.4324 C   0  0  0  0  0  0  0  0  0  0  0  0
   -1.3468  -55.4511  -24.2756 O   0  0  0  0  0  0  0  0  0  0  0  0
   -1.3669  -54.6965  -22.1723 O   0  0  0  0  0  0  0  0  0  0  0  0
   -1.1103  -53.7490  -21.2864 C   0  0  0  0  0  0  0  0  0  0  0  0
   -1.4288  -53.9851  -19.9526 C   0  0  0  0  0  0  0  0  0  0  0  0
   -0.2173  -53.2057  -25.2373 C   0  0  0  0  0  0  0  0  0  0  0  0
    0.8973  -53.8128  -25.7350 C   0  0  0  0  0  0  0  0  0  0  0  0
    1.2141  -53.7186  -27.0664 C   0  0  0  0  0  0  0  0  0  0  0  0
    0.3934  -53.0018  -27.9027 C   0  0  0  0  0  0  0  0  0  0  0  0
   -0.7379  -52.3852  -27.3992 C   0  0  0  0  0  0  0  0  0  0  0  0
   -1.0382  -52.4901  -26.0668 C   0  0  0  0  0  0  0  0  0  0  0  0
   -2.2672  -51.7982  -25.5994 C   0  0  0  0  0  0  0  0  0  0  0  0
    0.7166  -52.9057  -29.2613 O   0  0  0  0  0  0  0  0  0  0  0  0
   -0.3002  -52.9228  -30.2571 C   0  0  0  0  0  0  0  0  0  0  0  0
    0.1670  -53.6347  -31.3340 F   0  0  0  0  0  0  0  0  0  0  0  0
   -1.4346  -53.5245  -29.7447 F   0  0  0  0  0  0  0  0  0  0  0  0
   -0.6556  -51.6392  -30.6438 F   0  0  0  0  0  0  0  0  0  0  0  0
   -1.5235  -53.3108  -17.6526 O   0  0  0  0  0  0  0  0  0  0  0  0
   -2.6264  -52.1256  -15.8900 C   0  0  0  0  0  0  0  0  0  0  0  0
   -1.3205  -52.3790  -16.6080 C   0  0  0  0  0  0  0  0  0  0  0  0
    0.3222  -51.1154  -23.2703 O   0  0  0  0  0  0  0  0  0  0  0  0
    1.5684  -50.6095  -23.3272 C   0  0  0  0  0  0  0  0  0  0  0  0
    2.6311  -51.1359  -24.0128 C   0  0  0  0  0  0  0  0  0  0  0  0
    3.9029  -50.5642  -24.0287 C   0  0  0  0  0  0  0  0  0  0  0  0
    4.1509  -49.3917  -23.3216 C   0  0  0  0  0  0  0  0  0  0  0  0
    3.1004  -48.8424  -22.6249 C   0  0  0  0  0  0  0  0  0  0  0  0
    1.8549  -49.4247  -22.6242 C   0  0  0  0  0  0  0  0  0  0  0  0
    5.4833  -48.8142  -23.3522 C   0  0  0  0  0  0  0  0  0  0  0  0
    5.9953  -48.0774  -22.3875 C   0  0  0  0  0  0  0  0  0  0  0  0
    7.3646  -47.5481  -22.5406 C   0  0  0  0  0  0  0  0  0  0  0  0
    8.0034  -47.0872  -21.5697 O   0  0  0  0  0  0  0  0  0  0  0  0
    7.9784  -47.5506  -23.7766 O   0  0  0  0  0  0  0  0  0  0  0  0
    8.7861  -48.1442  -23.9977 H   0  0  0  0  0  0  0  0  0  0  0  0
 25 26  1  0  0  0
 26 24  1  0  0  0
 24  1  1  0  0  0
  1  2  2  0  0  0
  2  3  1  0  0  0
  3  4  2  0  0  0
  4  5  1  0  0  0
  5 27  1  0  0  0
 27 28  1  0  0  0
 28 29  2  0  0  0
 29 30  1  0  0  0
 30 31  2  0  0  0
 31 34  1  0  0  0
 34 35  2  0  0  0
 35 36  1  0  0  0
 36 37  2  0  0  0
 36 38  1  0  0  0
 31 32  1  0  0  0
 32 33  2  0  0  0
  5  6  2  0  0  0
  6 12  1  0  0  0
 12 13  2  0  0  0
 13 14  1  0  0  0
 14 15  2  0  0  0
 15 19  1  0  0  0
 19 20  1  0  0  0
 20 21  1  0  0  0
 20 22  1  0  0  0
 20 23  1  0  0  0
 15 16  1  0  0  0
 16 17  2  0  0  0
 17 18  1  0  0  0
  6  7  1  0  0  0
  7  8  2  0  0  0
  7  9  1  0  0  0
  9 10  1  0  0  0
 10 11  2  0  0  0
 11  1  1  0  0  0
 10  4  1  0  0  0
 33 28  1  0  0  0
 17 12  1  0  0  0
 38 39  1  0  0  0
M  END
> <minimizedAffinity>
-6.16212

> <CNNscore>
0.2541160285

> <CNNaffinity>
6.7788114548

> <CNN_VS>
1.7226046324

> <CNNaffinity_variance>
0.7350676060

$$$$
[H]N=C(c1c([H])c([H])c([H])c(Oc2c([H])c([H])c(N([H])[H])c([H])c2C(=O)N([H])c2c([H])c([H])c(-c3c([H])c([H])c([H])c([H])c3S(=O)(=O)N([H])[H])c([H])c2[H])c1[H])N([H])[H]


 44 47  0  0  0  0  0  0  0  0999 V2000
    0.0908  -52.7435  -22.7615 C   0  0  0  0  0  0  0  0  0  0  0  0
    0.1974  -52.8872  -24.1682 C   0  0  0  0  0  0  0  0  0  0  0  0
   -0.2445  -54.0291  -24.7805 C   0  0  0  0  0  0  0  0  0  0  0  0
   -0.7856  -55.0170  -23.9964 C   0  0  0  0  0  0  0  0  0  0  0  0
   -1.2233  -56.1946  -24.6506 N   0  0  0  0  0  0  0  0  0  0  0  0
   -0.8938  -54.8739  -22.6364 C   0  0  0  0  0  0  0  0  0  0  0  0
   -0.4446  -53.6839  -21.9722 C   0  0  0  0  0  0  0  0  0  0  0  0
   -2.1341  -56.6166  -24.4455 H   0  0  0  0  0  0  0  0  0  0  0  0
   -0.5753  -56.6110  -25.3385 H   0  0  0  0  0  0  0  0  0  0  0  0
   -0.9788  -53.5177  -20.5932 C   0  0  0  0  0  0  0  0  0  0  0  0
   -1.9599  -54.3506  -20.3992 O   0  0  0  0  0  0  0  0  0  0  0  0
   -0.6065  -52.7028  -19.6280 N   0  0  0  0  0  0  0  0  0  0  0  0
   -1.2941  -53.5065  -18.7238 H   0  0  0  0  0  0  0  0  0  0  0  0
   -0.2165  -51.8493  -18.6170 C   0  0  0  0  0  0  0  0  0  0  0  0
   -0.6612  -52.0884  -17.2956 C   0  0  0  0  0  0  0  0  0  0  0  0
   -0.3731  -51.2240  -16.2641 C   0  0  0  0  0  0  0  0  0  0  0  0
    0.3631  -50.0860  -16.4743 C   0  0  0  0  0  0  0  0  0  0  0  0
    0.8115  -49.8312  -17.7443 C   0  0  0  0  0  0  0  0  0  0  0  0
    0.5276  -50.6933  -18.7897 C   0  0  0  0  0  0  0  0  0  0  0  0
    0.6415  -49.1299  -15.4268 C   0  0  0  0  0  0  0  0  0  0  0  0
   -0.1155  -47.9833  -15.2766 C   0  0  0  0  0  0  0  0  0  0  0  0
    0.1625  -47.0517  -14.3091 C   0  0  0  0  0  0  0  0  0  0  0  0
    1.2278  -47.2636  -13.4613 C   0  0  0  0  0  0  0  0  0  0  0  0
    1.9881  -48.3932  -13.5937 C   0  0  0  0  0  0  0  0  0  0  0  0
    1.7000  -49.3347  -14.5761 C   0  0  0  0  0  0  0  0  0  0  0  0
    2.6812  -50.7391  -14.6574 S   0  0  0  0  0  0  0  0  0  0  0  0
    4.0389  -50.5374  -13.5662 N   0  0  0  0  0  0  0  0  0  0  0  0
    3.3409  -50.8275  -16.0235 O   0  0  0  0  0  0  0  0  0  0  0  0
    1.9785  -52.0172  -14.3018 O   0  0  0  0  0  0  0  0  0  0  0  0
    4.7148  -49.8370  -13.9377 H   0  0  0  0  0  0  0  0  0  0  0  0
    3.6924  -50.2064  -12.6505 H   0  0  0  0  0  0  0  0  0  0  0  0
    0.6091  -51.5346  -22.2395 O   0  0  0  0  0  0  0  0  0  0  0  0
    4.0964  -51.9551  -23.2696 C   0  0  0  0  0  0  0  0  0  0  0  0
    4.7799  -51.7905  -22.0829 C   0  0  0  0  0  0  0  0  0  0  0  0
    4.1334  -51.5334  -20.9000 C   0  0  0  0  0  0  0  0  0  0  0  0
    2.7321  -51.4442  -20.9503 C   0  0  0  0  0  0  0  0  0  0  0  0
    2.0136  -51.5967  -22.0732 C   0  0  0  0  0  0  0  0  0  0  0  0
    2.7288  -51.8607  -23.2752 C   0  0  0  0  0  0  0  0  0  0  0  0
    4.2505  -52.3312  -25.6568 N   0  0  0  0  0  0  0  0  0  0  0  0
    4.8064  -52.2423  -24.5223 C   0  0  0  0  0  0  0  0  0  0  0  0
    6.2094  -52.4511  -24.4578 N   0  0  0  0  0  0  0  0  0  0  0  0
    3.2735  -52.2200  -25.9213 H   0  0  0  0  0  0  0  0  0  0  0  0
    6.5340  -53.4219  -24.7028 H   0  0  0  0  0  0  0  0  0  0  0  0
    6.9246  -51.7649  -24.2007 H   0  0  0  0  0  0  0  0  0  0  0  0
 39 40  2  0  0  0
 40 41  1  0  0  0
 40 33  1  0  0  0
 33 34  2  0  0  0
 34 35  1  0  0  0
 35 36  2  0  0  0
 36 37  1  0  0  0
 37 32  1  0  0  0
 32  1  1  0  0  0
  1  2  2  0  0  0
  2  3  1  0  0  0
  3  4  2  0  0  0
  4  5  1  0  0  0
  4  6  1  0  0  0
  6  7  2  0  0  0
  7 10  1  0  0  0
 10 11  2  0  0  0
 10 12  1  0  0  0
 12 14  1  0  0  0
 14 15  2  0  0  0
 15 16  1  0  0  0
 16 17  2  0  0  0
 17 20  1  0  0  0
 20 21  2  0  0  0
 21 22  1  0  0  0
 22 23  2  0  0  0
 23 24  1  0  0  0
 24 25  2  0  0  0
 25 26  1  0  0  0
 26 27  1  0  0  0
 26 28  2  0  0  0
 26 29  2  0  0  0
 17 18  1  0  0  0
 18 19  2  0  0  0
 37 38  2  0  0  0
 38 33  1  0  0  0
  7  1  1  0  0  0
 19 14  1  0  0  0
 25 20  1  0  0  0
 39 42  1  0  0  0
 41 43  1  0  0  0
 41 44  1  0  0  0
  5  8  1  0  0  0
  5  9  1  0  0  0
 12 13  1  0  0  0
 27 30  1  0  0  0
 27 31  1  0  0  0
M  END
> <minimizedAffinity>
-9.39157

> <CNNscore>
0.6951436400

> <CNNaffinity>
7.1012597084

> <CNN_VS>
4.9363956451

> <CNNaffinity_variance>
0.0945584923

$$$$
[H]N=C(c1c([H])c([H])c([H])c(Oc2c([H])c([H])c(N([H])[H])c([H])c2C(=O)N([H])c2c([H])c([H])c(-c3c([H])c([H])c([H])c([H])c3S(=O)(=O)N([H])[H])c([H])c2[H])c1[H])N([H])[H]


 44 47  0  0  0  0  0  0  0  0999 V2000
    2.4744  -51.2281  -18.8294 C   0  0  0  0  0  0  0  0  0  0  0  0
    3.0263  -50.5062  -17.7408 C   0  0  0  0  0  0  0  0  0  0  0  0
    2.2061  -49.8739  -16.8455 C   0  0  0  0  0  0  0  0  0  0  0  0
    0.8497  -49.9606  -17.0363 C   0  0  0  0  0  0  0  0  0  0  0  0
    0.0217  -49.2870  -16.1050 N   0  0  0  0  0  0  0  0  0  0  0  0
    0.3171  -50.6645  -18.0863 C   0  0  0  0  0  0  0  0  0  0  0  0
    1.1556  -51.3416  -19.0337 C   0  0  0  0  0  0  0  0  0  0  0  0
   -0.7973  -49.7399  -15.6882 H   0  0  0  0  0  0  0  0  0  0  0  0
    0.2800  -48.3142  -15.8738 H   0  0  0  0  0  0  0  0  0  0  0  0
    0.4467  -52.3602  -19.8551 C   0  0  0  0  0  0  0  0  0  0  0  0
   -0.1114  -53.2411  -19.0764 O   0  0  0  0  0  0  0  0  0  0  0  0
    0.3233  -52.4648  -21.1621 N   0  0  0  0  0  0  0  0  0  0  0  0
   -0.7407  -53.3390  -20.9625 H   0  0  0  0  0  0  0  0  0  0  0  0
    0.1941  -52.5743  -22.5310 C   0  0  0  0  0  0  0  0  0  0  0  0
    0.5630  -51.4839  -23.3532 C   0  0  0  0  0  0  0  0  0  0  0  0
    0.3768  -51.5060  -24.7166 C   0  0  0  0  0  0  0  0  0  0  0  0
   -0.1778  -52.5938  -25.3413 C   0  0  0  0  0  0  0  0  0  0  0  0
   -0.5405  -53.6673  -24.5699 C   0  0  0  0  0  0  0  0  0  0  0  0
   -0.3582  -53.6562  -23.1976 C   0  0  0  0  0  0  0  0  0  0  0  0
   -0.4354  -52.6323  -26.7629 C   0  0  0  0  0  0  0  0  0  0  0  0
   -1.7162  -52.5094  -27.2677 C   0  0  0  0  0  0  0  0  0  0  0  0
   -1.9762  -52.5810  -28.6125 C   0  0  0  0  0  0  0  0  0  0  0  0
   -0.9308  -52.7816  -29.4873 C   0  0  0  0  0  0  0  0  0  0  0  0
    0.3442  -52.9044  -29.0067 C   0  0  0  0  0  0  0  0  0  0  0  0
    0.6013  -52.8295  -27.6418 C   0  0  0  0  0  0  0  0  0  0  0  0
    2.2301  -52.9621  -27.1212 S   0  0  0  0  0  0  0  0  0  0  0  0
    2.9368  -51.3578  -27.0795 N   0  0  0  0  0  0  0  0  0  0  0  0
    3.0519  -53.6787  -28.1796 O   0  0  0  0  0  0  0  0  0  0  0  0
    2.4076  -53.5890  -25.7687 O   0  0  0  0  0  0  0  0  0  0  0  0
    3.0962  -50.9956  -28.0432 H   0  0  0  0  0  0  0  0  0  0  0  0
    2.2925  -50.7155  -26.5892 H   0  0  0  0  0  0  0  0  0  0  0  0
    3.4202  -51.8124  -19.7049 O   0  0  0  0  0  0  0  0  0  0  0  0
    4.6909  -51.0212  -23.0454 C   0  0  0  0  0  0  0  0  0  0  0  0
    4.1235  -49.7893  -23.2964 C   0  0  0  0  0  0  0  0  0  0  0  0
    3.3023  -49.1677  -22.3894 C   0  0  0  0  0  0  0  0  0  0  0  0
    3.0621  -49.8465  -21.1830 C   0  0  0  0  0  0  0  0  0  0  0  0
    3.5868  -51.0444  -20.8825 C   0  0  0  0  0  0  0  0  0  0  0  0
    4.4313  -51.6499  -21.8552 C   0  0  0  0  0  0  0  0  0  0  0  0
    5.1790  -52.2654  -25.0648 N   0  0  0  0  0  0  0  0  0  0  0  0
    5.5772  -51.6635  -24.0240 C   0  0  0  0  0  0  0  0  0  0  0  0
    6.9757  -51.6224  -23.7811 N   0  0  0  0  0  0  0  0  0  0  0  0
    4.2361  -52.4102  -25.4209 H   0  0  0  0  0  0  0  0  0  0  0  0
    7.4296  -52.5532  -23.5931 H   0  0  0  0  0  0  0  0  0  0  0  0
    7.5762  -50.7933  -23.7697 H   0  0  0  0  0  0  0  0  0  0  0  0
 39 40  2  0  0  0
 40 41  1  0  0  0
 40 33  1  0  0  0
 33 34  2  0  0  0
 34 35  1  0  0  0
 35 36  2  0  0  0
 36 37  1  0  0  0
 37 32  1  0  0  0
 32  1  1  0  0  0
  1  2  2  0  0  0
  2  3  1  0  0  0
  3  4  2  0  0  0
  4  5  1  0  0  0
  4  6  1  0  0  0
  6  7  2  0  0  0
  7 10  1  0  0  0
 10 11  2  0  0  0
 10 12  1  0  0  0
 12 14  1  0  0  0
 14 15  2  0  0  0
 15 16  1  0  0  0
 16 17  2  0  0  0
 17 20  1  0  0  0
 20 21  2  0  0  0
 21 22  1  0  0  0
 22 23  2  0  0  0
 23 24  1  0  0  0
 24 25  2  0  0  0
 25 26  1  0  0  0
 26 27  1  0  0  0
 26 28  2  0  0  0
 26 29  2  0  0  0
 17 18  1  0  0  0
 18 19  2  0  0  0
 37 38  2  0  0  0
 38 33  1  0  0  0
  7  1  1  0  0  0
 19 14  1  0  0  0
 25 20  1  0  0  0
 39 42  1  0  0  0
 41 43  1  0  0  0
 41 44  1  0  0  0
  5  8  1  0  0  0
  5  9  1  0  0  0
 12 13  1  0  0  0
 27 30  1  0  0  0
 27 31  1  0  0  0
M  END
> <minimizedAffinity>
-10.53272

> <CNNscore>
0.5552030206

> <CNNaffinity>
7.1537742615

> <CNN_VS>
3.9717969894

> <CNNaffinity_variance>
0.1982884109

$$$$
[H]N=C(c1c([H])c([H])c([H])c(Oc2c([H])c([H])c(N([H])[H])c([H])c2C(=O)N([H])c2c([H])c([H])c(-c3c([H])c([H])c([H])c([H])c3S(=O)(=O)N([H])[H])c([H])c2[H])c1[H])N([H])[H]


 44 47  0  0  0  0  0  0  0  0999 V2000
    0.1996  -52.3264  -22.4367 C   0  0  0  0  0  0  0  0  0  0  0  0
    0.1362  -52.5778  -23.8309 C   0  0  0  0  0  0  0  0  0  0  0  0
   -0.4326  -53.7318  -24.2987 C   0  0  0  0  0  0  0  0  0  0  0  0
   -0.9312  -54.6254  -23.3842 C   0  0  0  0  0  0  0  0  0  0  0  0
   -1.5026  -55.8182  -23.8913 N   0  0  0  0  0  0  0  0  0  0  0  0
   -0.8748  -54.3780  -22.0361 C   0  0  0  0  0  0  0  0  0  0  0  0
   -0.2903  -53.1728  -21.5215 C   0  0  0  0  0  0  0  0  0  0  0  0
   -2.4046  -56.1678  -23.5540 H   0  0  0  0  0  0  0  0  0  0  0  0
   -0.9607  -56.3221  -24.6116 H   0  0  0  0  0  0  0  0  0  0  0  0
   -0.6529  -52.8750  -20.1092 C   0  0  0  0  0  0  0  0  0  0  0  0
   -1.6980  -53.5716  -19.7682 O   0  0  0  0  0  0  0  0  0  0  0  0
   -0.0887  -52.0649  -19.2376 N   0  0  0  0  0  0  0  0  0  0  0  0
   -0.7656  -52.7332  -18.2220 H   0  0  0  0  0  0  0  0  0  0  0  0
    0.5023  -51.2164  -18.3246 C   0  0  0  0  0  0  0  0  0  0  0  0
    0.7152  -51.6616  -16.9989 C   0  0  0  0  0  0  0  0  0  0  0  0
    1.2226  -50.8310  -16.0259 C   0  0  0  0  0  0  0  0  0  0  0  0
    1.5463  -49.5270  -16.3017 C   0  0  0  0  0  0  0  0  0  0  0  0
    1.3550  -49.0695  -17.5796 C   0  0  0  0  0  0  0  0  0  0  0  0
    0.8450  -49.8959  -18.5664 C   0  0  0  0  0  0  0  0  0  0  0  0
    2.0327  -48.6120  -15.2943 C   0  0  0  0  0  0  0  0  0  0  0  0
    3.3742  -48.2942  -15.1955 C   0  0  0  0  0  0  0  0  0  0  0  0
    3.8516  -47.4557  -14.2207 C   0  0  0  0  0  0  0  0  0  0  0  0
    2.9689  -46.9137  -13.3121 C   0  0  0  0  0  0  0  0  0  0  0  0
    1.6371  -47.2155  -13.3944 C   0  0  0  0  0  0  0  0  0  0  0  0
    1.1593  -48.0655  -14.3863 C   0  0  0  0  0  0  0  0  0  0  0  0
   -0.5277  -48.3699  -14.4413 S   0  0  0  0  0  0  0  0  0  0  0  0
   -0.8182  -50.0118  -13.8985 N   0  0  0  0  0  0  0  0  0  0  0  0
   -1.0000  -48.3905  -15.8855 O   0  0  0  0  0  0  0  0  0  0  0  0
   -1.3603  -47.4437  -13.6030 O   0  0  0  0  0  0  0  0  0  0  0  0
   -0.4984  -50.7018  -14.6105 H   0  0  0  0  0  0  0  0  0  0  0  0
   -0.2957  -50.1773  -13.0224 H   0  0  0  0  0  0  0  0  0  0  0  0
    0.8373  -51.1169  -22.0721 O   0  0  0  0  0  0  0  0  0  0  0  0
    4.2342  -51.8326  -23.2333 C   0  0  0  0  0  0  0  0  0  0  0  0
    4.9813  -51.6769  -22.0844 C   0  0  0  0  0  0  0  0  0  0  0  0
    4.4098  -51.3300  -20.8858 C   0  0  0  0  0  0  0  0  0  0  0  0
    3.0179  -51.1385  -20.8795 C   0  0  0  0  0  0  0  0  0  0  0  0
    2.2397  -51.2774  -21.9638 C   0  0  0  0  0  0  0  0  0  0  0  0
    2.8783  -51.6370  -23.1841 C   0  0  0  0  0  0  0  0  0  0  0  0
    4.2430  -52.3491  -25.5992 N   0  0  0  0  0  0  0  0  0  0  0  0
    4.8635  -52.2168  -24.5030 C   0  0  0  0  0  0  0  0  0  0  0  0
    6.2600  -52.4737  -24.5013 N   0  0  0  0  0  0  0  0  0  0  0  0
    3.2571  -52.2168  -25.8172 H   0  0  0  0  0  0  0  0  0  0  0  0
    6.5372  -53.4683  -24.7058 H   0  0  0  0  0  0  0  0  0  0  0  0
    7.0113  -51.8012  -24.3235 H   0  0  0  0  0  0  0  0  0  0  0  0
 39 40  2  0  0  0
 40 41  1  0  0  0
 40 33  1  0  0  0
 33 34  2  0  0  0
 34 35  1  0  0  0
 35 36  2  0  0  0
 36 37  1  0  0  0
 37 32  1  0  0  0
 32  1  1  0  0  0
  1  2  2  0  0  0
  2  3  1  0  0  0
  3  4  2  0  0  0
  4  5  1  0  0  0
  4  6  1  0  0  0
  6  7  2  0  0  0
  7 10  1  0  0  0
 10 11  2  0  0  0
 10 12  1  0  0  0
 12 14  1  0  0  0
 14 15  2  0  0  0
 15 16  1  0  0  0
 16 17  2  0  0  0
 17 20  1  0  0  0
 20 21  2  0  0  0
 21 22  1  0  0  0
 22 23  2  0  0  0
 23 24  1  0  0  0
 24 25  2  0  0  0
 25 26  1  0  0  0
 26 27  1  0  0  0
 26 28  2  0  0  0
 26 29  2  0  0  0
 17 18  1  0  0  0
 18 19  2  0  0  0
 37 38  2  0  0  0
 38 33  1  0  0  0
  7  1  1  0  0  0
 19 14  1  0  0  0
 25 20  1  0  0  0
 39 42  1  0  0  0
 41 43  1  0  0  0
 41 44  1  0  0  0
  5  8  1  0  0  0
  5  9  1  0  0  0
 12 13  1  0  0  0
 27 30  1  0  0  0
 27 31  1  0  0  0
M  END
> <minimizedAffinity>
-8.11256

> <CNNscore>
0.4333129823

> <CNNaffinity>
6.9332685471

> <CNN_VS>
3.0042753220

> <CNNaffinity_variance>
0.2224215567

$$$$
[H]N=C(c1c([H])c([H])c([H])c(Oc2c([H])c([H])c(N([H])[H])c([H])c2C(=O)N([H])c2c([H])c([H])c(-c3c([H])c([H])c([H])c([H])c3S(=O)(=O)N([H])[H])c([H])c2[H])c1[H])N([H])[H]


 44 47  0  0  0  0  0  0  0  0999 V2000
    1.5884  -53.4043  -25.9031 C   0  0  0  0  0  0  0  0  0  0  0  0
    2.0519  -52.6780  -27.0295 C   0  0  0  0  0  0  0  0  0  0  0  0
    1.2398  -52.4991  -28.1169 C   0  0  0  0  0  0  0  0  0  0  0  0
   -0.0207  -53.0408  -28.0803 C   0  0  0  0  0  0  0  0  0  0  0  0
   -0.8378  -52.8543  -29.2223 N   0  0  0  0  0  0  0  0  0  0  0  0
   -0.4699  -53.7378  -26.9876 C   0  0  0  0  0  0  0  0  0  0  0  0
    0.3596  -53.9326  -25.8330 C   0  0  0  0  0  0  0  0  0  0  0  0
   -1.8138  -52.5538  -29.1416 H   0  0  0  0  0  0  0  0  0  0  0  0
   -0.4029  -53.0444  -30.1396 H   0  0  0  0  0  0  0  0  0  0  0  0
   -0.3837  -54.3477  -24.6123 C   0  0  0  0  0  0  0  0  0  0  0  0
   -1.1800  -55.3365  -24.8984 O   0  0  0  0  0  0  0  0  0  0  0  0
   -0.3326  -53.8779  -23.3831 N   0  0  0  0  0  0  0  0  0  0  0  0
   -0.9500  -55.0446  -22.9427 H   0  0  0  0  0  0  0  0  0  0  0  0
   -0.2791  -53.3859  -22.0955 C   0  0  0  0  0  0  0  0  0  0  0  0
   -0.4785  -52.0036  -21.8711 C   0  0  0  0  0  0  0  0  0  0  0  0
   -0.3532  -51.4449  -20.6196 C   0  0  0  0  0  0  0  0  0  0  0  0
   -0.0277  -52.2097  -19.5285 C   0  0  0  0  0  0  0  0  0  0  0  0
    0.1667  -53.5536  -19.7156 C   0  0  0  0  0  0  0  0  0  0  0  0
    0.0436  -54.1265  -20.9698 C   0  0  0  0  0  0  0  0  0  0  0  0
    0.1627  -51.6499  -18.2098 C   0  0  0  0  0  0  0  0  0  0  0  0
   -0.8152  -51.7448  -17.2376 C   0  0  0  0  0  0  0  0  0  0  0  0
   -0.6598  -51.1858  -15.9948 C   0  0  0  0  0  0  0  0  0  0  0  0
    0.5049  -50.5089  -15.7056 C   0  0  0  0  0  0  0  0  0  0  0  0
    1.4849  -50.4053  -16.6545 C   0  0  0  0  0  0  0  0  0  0  0  0
    1.3216  -50.9757  -17.9124 C   0  0  0  0  0  0  0  0  0  0  0  0
    2.6089  -50.8286  -19.0362 S   0  0  0  0  0  0  0  0  0  0  0  0
    4.0131  -50.1943  -18.1990 N   0  0  0  0  0  0  0  0  0  0  0  0
    2.2860  -49.7430  -20.0493 O   0  0  0  0  0  0  0  0  0  0  0  0
    3.0032  -52.1108  -19.7102 O   0  0  0  0  0  0  0  0  0  0  0  0
    3.8816  -49.1889  -17.9597 H   0  0  0  0  0  0  0  0  0  0  0  0
    4.1548  -50.7249  -17.3235 H   0  0  0  0  0  0  0  0  0  0  0  0
    2.5267  -53.5503  -24.8539 O   0  0  0  0  0  0  0  0  0  0  0  0
    4.9129  -50.9732  -23.8223 C   0  0  0  0  0  0  0  0  0  0  0  0
    4.0862  -49.9542  -23.3972 C   0  0  0  0  0  0  0  0  0  0  0  0
    2.7186  -50.0638  -23.4317 C   0  0  0  0  0  0  0  0  0  0  0  0
    2.1920  -51.2701  -23.9233 C   0  0  0  0  0  0  0  0  0  0  0  0
    2.9452  -52.2958  -24.3487 C   0  0  0  0  0  0  0  0  0  0  0  0
    4.3585  -52.1345  -24.2947 C   0  0  0  0  0  0  0  0  0  0  0  0
    7.0660  -50.9840  -22.7141 N   0  0  0  0  0  0  0  0  0  0  0  0
    6.3740  -50.8406  -23.7651 C   0  0  0  0  0  0  0  0  0  0  0  0
    7.0588  -50.5135  -24.9653 N   0  0  0  0  0  0  0  0  0  0  0  0
    6.7798  -51.2143  -21.7643 H   0  0  0  0  0  0  0  0  0  0  0  0
    7.5325  -49.5736  -24.9740 H   0  0  0  0  0  0  0  0  0  0  0  0
    7.1363  -51.0892  -25.8085 H   0  0  0  0  0  0  0  0  0  0  0  0
 39 40  2  0  0  0
 40 41  1  0  0  0
 40 33  1  0  0  0
 33 34  2  0  0  0
 34 35  1  0  0  0
 35 36  2  0  0  0
 36 37  1  0  0  0
 37 32  1  0  0  0
 32  1  1  0  0  0
  1  2  2  0  0  0
  2  3  1  0  0  0
  3  4  2  0  0  0
  4  5  1  0  0  0
  4  6  1  0  0  0
  6  7  2  0  0  0
  7 10  1  0  0  0
 10 11  2  0  0  0
 10 12  1  0  0  0
 12 14  1  0  0  0
 14 15  2  0  0  0
 15 16  1  0  0  0
 16 17  2  0  0  0
 17 20  1  0  0  0
 20 21  2  0  0  0
 21 22  1  0  0  0
 22 23  2  0  0  0
 23 24  1  0  0  0
 24 25  2  0  0  0
 25 26  1  0  0  0
 26 27  1  0  0  0
 26 28  2  0  0  0
 26 29  2  0  0  0
 17 18  1  0  0  0
 18 19  2  0  0  0
 37 38  2  0  0  0
 38 33  1  0  0  0
  7  1  1  0  0  0
 19 14  1  0  0  0
 25 20  1  0  0  0
 39 42  1  0  0  0
 41 43  1  0  0  0
 41 44  1  0  0  0
  5  8  1  0  0  0
  5  9  1  0  0  0
 12 13  1  0  0  0
 27 30  1  0  0  0
 27 31  1  0  0  0
M  END
> <minimizedAffinity>
-9.57301

> <CNNscore>
0.3796603680

> <CNNaffinity>
7.0349035263

> <CNN_VS>
2.6708741188

> <CNNaffinity_variance>
0.3211019933

$$$$
[H]N=C(c1c([H])c([H])c([H])c(Oc2c([H])c([H])c(N([H])[H])c([H])c2C(=O)N([H])c2c([H])c([H])c(-c3c([H])c([H])c([H])c([H])c3S(=O)(=O)N([H])[H])c([H])c2[H])c1[H])N([H])[H]


 44 47  0  0  0  0  0  0  0  0999 V2000
    1.1020  -51.9035  -24.7420 C   0  0  0  0  0  0  0  0  0  0  0  0
    1.3969  -51.6299  -26.1018 C   0  0  0  0  0  0  0  0  0  0  0  0
    1.1297  -52.5633  -27.0670 C   0  0  0  0  0  0  0  0  0  0  0  0
    0.5755  -53.7571  -26.6782 C   0  0  0  0  0  0  0  0  0  0  0  0
    0.3206  -54.7123  -27.6926 N   0  0  0  0  0  0  0  0  0  0  0  0
    0.2850  -54.0179  -25.3631 C   0  0  0  0  0  0  0  0  0  0  0  0
    0.5489  -53.0532  -24.3342 C   0  0  0  0  0  0  0  0  0  0  0  0
   -0.5716  -55.2127  -27.7477 H   0  0  0  0  0  0  0  0  0  0  0  0
    1.0819  -54.8850  -28.3687 H   0  0  0  0  0  0  0  0  0  0  0  0
   -0.1670  -53.3150  -23.0560 C   0  0  0  0  0  0  0  0  0  0  0  0
   -1.0186  -54.2853  -23.2207 O   0  0  0  0  0  0  0  0  0  0  0  0
   -0.0485  -52.7358  -21.8793 N   0  0  0  0  0  0  0  0  0  0  0  0
   -0.7027  -53.8240  -21.3101 H   0  0  0  0  0  0  0  0  0  0  0  0
    0.0757  -52.1291  -20.6467 C   0  0  0  0  0  0  0  0  0  0  0  0
   -0.1809  -52.8782  -19.4745 C   0  0  0  0  0  0  0  0  0  0  0  0
   -0.1546  -52.3034  -18.2243 C   0  0  0  0  0  0  0  0  0  0  0  0
    0.1240  -50.9706  -18.0598 C   0  0  0  0  0  0  0  0  0  0  0  0
    0.3815  -50.2209  -19.1781 C   0  0  0  0  0  0  0  0  0  0  0  0
    0.3575  -50.7882  -20.4408 C   0  0  0  0  0  0  0  0  0  0  0  0
    0.1101  -50.3222  -16.7683 C   0  0  0  0  0  0  0  0  0  0  0  0
   -1.0701  -50.1066  -16.0817 C   0  0  0  0  0  0  0  0  0  0  0  0
   -1.0986  -49.4600  -14.8725 C   0  0  0  0  0  0  0  0  0  0  0  0
    0.0834  -49.0111  -14.3248 C   0  0  0  0  0  0  0  0  0  0  0  0
    1.2618  -49.2161  -14.9888 C   0  0  0  0  0  0  0  0  0  0  0  0
    1.2839  -49.8738  -16.2142 C   0  0  0  0  0  0  0  0  0  0  0  0
    2.8046  -50.1191  -16.9686 S   0  0  0  0  0  0  0  0  0  0  0  0
    4.0591  -50.0099  -15.7483 N   0  0  0  0  0  0  0  0  0  0  0  0
    3.1141  -48.9536  -17.8933 O   0  0  0  0  0  0  0  0  0  0  0  0
    2.9496  -51.4358  -17.6751 O   0  0  0  0  0  0  0  0  0  0  0  0
    4.1848  -49.0260  -15.4301 H   0  0  0  0  0  0  0  0  0  0  0  0
    3.7918  -50.5873  -14.9339 H   0  0  0  0  0  0  0  0  0  0  0  0
    1.4507  -50.8769  -23.8327 O   0  0  0  0  0  0  0  0  0  0  0  0
    4.3358  -50.1833  -21.6892 C   0  0  0  0  0  0  0  0  0  0  0  0
    5.2235  -51.1741  -22.0539 C   0  0  0  0  0  0  0  0  0  0  0  0
    4.9176  -52.1095  -23.0104 C   0  0  0  0  0  0  0  0  0  0  0  0
    3.6495  -52.0136  -23.6077 C   0  0  0  0  0  0  0  0  0  0  0  0
    2.7460  -51.0719  -23.2956 C   0  0  0  0  0  0  0  0  0  0  0  0
    3.1085  -50.1246  -22.2969 C   0  0  0  0  0  0  0  0  0  0  0  0
    5.4719  -49.3959  -19.7008 N   0  0  0  0  0  0  0  0  0  0  0  0
    4.6876  -49.1841  -20.6725 C   0  0  0  0  0  0  0  0  0  0  0  0
    4.0970  -47.8968  -20.7740 N   0  0  0  0  0  0  0  0  0  0  0  0
    5.9919  -50.2334  -19.4456 H   0  0  0  0  0  0  0  0  0  0  0  0
    3.4368  -47.6394  -19.9957 H   0  0  0  0  0  0  0  0  0  0  0  0
    4.2454  -47.2062  -21.5152 H   0  0  0  0  0  0  0  0  0  0  0  0
 39 40  2  0  0  0
 40 41  1  0  0  0
 40 33  1  0  0  0
 33 34  2  0  0  0
 34 35  1  0  0  0
 35 36  2  0  0  0
 36 37  1  0  0  0
 37 32  1  0  0  0
 32  1  1  0  0  0
  1  2  2  0  0  0
  2  3  1  0  0  0
  3  4  2  0  0  0
  4  5  1  0  0  0
  4  6  1  0  0  0
  6  7  2  0  0  0
  7 10  1  0  0  0
 10 11  2  0  0  0
 10 12  1  0  0  0
 12 14  1  0  0  0
 14 15  2  0  0  0
 15 16  1  0  0  0
 16 17  2  0  0  0
 17 20  1  0  0  0
 20 21  2  0  0  0
 21 22  1  0  0  0
 22 23  2  0  0  0
 23 24  1  0  0  0
 24 25  2  0  0  0
 25 26  1  0  0  0
 26 27  1  0  0  0
 26 28  2  0  0  0
 26 29  2  0  0  0
 17 18  1  0  0  0
 18 19  2  0  0  0
 37 38  2  0  0  0
 38 33  1  0  0  0
  7  1  1  0  0  0
 19 14  1  0  0  0
 25 20  1  0  0  0
 39 42  1  0  0  0
 41 43  1  0  0  0
 41 44  1  0  0  0
  5  8  1  0  0  0
  5  9  1  0  0  0
 12 13  1  0  0  0
 27 30  1  0  0  0
 27 31  1  0  0  0
M  END
> <minimizedAffinity>
-8.11850

> <CNNscore>
0.3509419262

> <CNNaffinity>
6.8818421364

> <CNN_VS>
2.4151270390

> <CNNaffinity_variance>
0.3545595706

$$$$
[H]N=C(c1c([H])c([H])c([H])c(Oc2c([H])c([H])c(N([H])[H])c([H])c2C(=O)N([H])c2c([H])c([H])c(-c3c([H])c([H])c([H])c([H])c3S(=O)(=O)N([H])[H])c([H])c2[H])c1[H])N([H])[H]


 44 47  0  0  0  0  0  0  0  0999 V2000
   -0.1959  -52.5730  -22.6784 C   0  0  0  0  0  0  0  0  0  0  0  0
   -0.2064  -52.7535  -24.0849 C   0  0  0  0  0  0  0  0  0  0  0  0
   -0.5703  -53.9584  -24.6231 C   0  0  0  0  0  0  0  0  0  0  0  0
   -0.9185  -54.9722  -23.7661 C   0  0  0  0  0  0  0  0  0  0  0  0
   -1.2781  -56.2137  -24.3457 N   0  0  0  0  0  0  0  0  0  0  0  0
   -0.9139  -54.7943  -22.4059 C   0  0  0  0  0  0  0  0  0  0  0  0
   -0.5434  -53.5388  -21.8180 C   0  0  0  0  0  0  0  0  0  0  0  0
   -2.1111  -56.7272  -24.0424 H   0  0  0  0  0  0  0  0  0  0  0  0
   -0.6542  -56.5792  -25.0831 H   0  0  0  0  0  0  0  0  0  0  0  0
   -0.9609  -53.3848  -20.3979 C   0  0  0  0  0  0  0  0  0  0  0  0
   -1.9822  -54.1540  -20.1547 O   0  0  0  0  0  0  0  0  0  0  0  0
   -0.4607  -52.6323  -19.4399 N   0  0  0  0  0  0  0  0  0  0  0  0
   -1.1355  -53.4177  -18.5104 H   0  0  0  0  0  0  0  0  0  0  0  0
    0.0632  -51.8441  -18.4364 C   0  0  0  0  0  0  0  0  0  0  0  0
   -0.5893  -51.7909  -17.1824 C   0  0  0  0  0  0  0  0  0  0  0  0
   -0.1598  -50.9582  -16.1743 C   0  0  0  0  0  0  0  0  0  0  0  0
    0.9271  -50.1388  -16.3431 C   0  0  0  0  0  0  0  0  0  0  0  0
    1.5821  -50.1729  -17.5468 C   0  0  0  0  0  0  0  0  0  0  0  0
    1.1589  -51.0063  -18.5680 C   0  0  0  0  0  0  0  0  0  0  0  0
    1.3755  -49.2149  -15.3262 C   0  0  0  0  0  0  0  0  0  0  0  0
    0.9421  -47.9027  -15.3017 C   0  0  0  0  0  0  0  0  0  0  0  0
    1.3892  -47.0080  -14.3632 C   0  0  0  0  0  0  0  0  0  0  0  0
    2.2976  -47.4283  -13.4163 C   0  0  0  0  0  0  0  0  0  0  0  0
    2.7375  -48.7237  -13.4235 C   0  0  0  0  0  0  0  0  0  0  0  0
    2.2790  -49.6263  -14.3772 C   0  0  0  0  0  0  0  0  0  0  0  0
    2.8547  -51.2401  -14.3003 S   0  0  0  0  0  0  0  0  0  0  0  0
    3.9657  -51.3745  -12.9503 N   0  0  0  0  0  0  0  0  0  0  0  0
    3.7328  -51.5312  -15.5059 O   0  0  0  0  0  0  0  0  0  0  0  0
    1.7853  -52.2807  -14.1342 O   0  0  0  0  0  0  0  0  0  0  0  0
    4.8620  -50.8847  -13.1551 H   0  0  0  0  0  0  0  0  0  0  0  0
    3.5383  -50.9422  -12.1145 H   0  0  0  0  0  0  0  0  0  0  0  0
    0.2273  -51.2961  -22.2390 O   0  0  0  0  0  0  0  0  0  0  0  0
    3.8297  -50.6465  -22.2233 C   0  0  0  0  0  0  0  0  0  0  0  0
    4.0761  -50.2997  -23.5354 C   0  0  0  0  0  0  0  0  0  0  0  0
    3.0799  -50.2659  -24.4788 C   0  0  0  0  0  0  0  0  0  0  0  0
    1.7862  -50.6030  -24.0465 C   0  0  0  0  0  0  0  0  0  0  0  0
    1.4860  -50.9463  -22.7845 C   0  0  0  0  0  0  0  0  0  0  0  0
    2.5528  -50.9681  -21.8424 C   0  0  0  0  0  0  0  0  0  0  0  0
    4.7701  -50.3169  -20.0162 N   0  0  0  0  0  0  0  0  0  0  0  0
    4.9076  -50.6640  -21.2264 C   0  0  0  0  0  0  0  0  0  0  0  0
    6.1967  -51.0830  -21.6494 N   0  0  0  0  0  0  0  0  0  0  0  0
    3.9463  -49.9890  -19.5154 H   0  0  0  0  0  0  0  0  0  0  0  0
    6.9437  -50.3418  -21.6252 H   0  0  0  0  0  0  0  0  0  0  0  0
    6.4680  -52.0165  -21.9705 H   0  0  0  0  0  0  0  0  0  0  0  0
 39 40  2  0  0  0
 40 41  1  0  0  0
 40 33  1  0  0  0
 33 34  2  0  0  0
 34 35  1  0  0  0
 35 36  2  0  0  0
 36 37  1  0  0  0
 37 32  1  0  0  0
 32  1  1  0  0  0
  1  2  2  0  0  0
  2  3  1  0  0  0
  3  4  2  0  0  0
  4  5  1  0  0  0
  4  6  1  0  0  0
  6  7  2  0  0  0
  7 10  1  0  0  0
 10 11  2  0  0  0
 10 12  1  0  0  0
 12 14  1  0  0  0
 14 15  2  0  0  0
 15 16  1  0  0  0
 16 17  2  0  0  0
 17 20  1  0  0  0
 20 21  2  0  0  0
 21 22  1  0  0  0
 22 23  2  0  0  0
 23 24  1  0  0  0
 24 25  2  0  0  0
 25 26  1  0  0  0
 26 27  1  0  0  0
 26 28  2  0  0  0
 26 29  2  0  0  0
 17 18  1  0  0  0
 18 19  2  0  0  0
 37 38  2  0  0  0
 38 33  1  0  0  0
  7  1  1  0  0  0
 19 14  1  0  0  0
 25 20  1  0  0  0
 39 42  1  0  0  0
 41 43  1  0  0  0
 41 44  1  0  0  0
  5  8  1  0  0  0
  5  9  1  0  0  0
 12 13  1  0  0  0
 27 30  1  0  0  0
 27 31  1  0  0  0
M  END
> <minimizedAffinity>
-8.62538

> <CNNscore>
0.3319101930

> <CNNaffinity>
6.6547293663

> <CNN_VS>
2.2087724209

> <CNNaffinity_variance>
0.1909006536

$$$$
[H]N=C(c1c([H])c([H])c([H])c(Oc2c([H])c([H])c(N([H])[H])c([H])c2C(=O)N([H])c2c([H])c([H])c(-c3c([H])c([H])c([H])c([H])c3S(=O)(=O)N([H])[H])c([H])c2[H])c1[H])N([H])[H]


 44 47  0  0  0  0  0  0  0  0999 V2000
    0.1483  -52.2483  -22.8043 C   0  0  0  0  0  0  0  0  0  0  0  0
    0.1246  -52.4788  -24.2034 C   0  0  0  0  0  0  0  0  0  0  0  0
   -0.3513  -53.6625  -24.6996 C   0  0  0  0  0  0  0  0  0  0  0  0
   -0.7973  -54.6061  -23.8084 C   0  0  0  0  0  0  0  0  0  0  0  0
   -1.2724  -55.8281  -24.3446 N   0  0  0  0  0  0  0  0  0  0  0  0
   -0.7796  -54.3793  -22.4556 C   0  0  0  0  0  0  0  0  0  0  0  0
   -0.2924  -53.1441  -21.9115 C   0  0  0  0  0  0  0  0  0  0  0  0
   -2.1516  -56.2482  -24.0281 H   0  0  0  0  0  0  0  0  0  0  0  0
   -0.6843  -56.2784  -25.0642 H   0  0  0  0  0  0  0  0  0  0  0  0
   -0.6973  -52.8987  -20.5006 C   0  0  0  0  0  0  0  0  0  0  0  0
   -1.9003  -53.3545  -20.3036 O   0  0  0  0  0  0  0  0  0  0  0  0
   -0.0390  -52.3293  -19.5124 N   0  0  0  0  0  0  0  0  0  0  0  0
   -0.9369  -52.9069  -18.6200 H   0  0  0  0  0  0  0  0  0  0  0  0
    0.6506  -51.7329  -18.4772 C   0  0  0  0  0  0  0  0  0  0  0  0
    2.0221  -51.4278  -18.6408 C   0  0  0  0  0  0  0  0  0  0  0  0
    2.7791  -50.9106  -17.6143 C   0  0  0  0  0  0  0  0  0  0  0  0
    2.2325  -50.6667  -16.3803 C   0  0  0  0  0  0  0  0  0  0  0  0
    0.9039  -50.9483  -16.1943 C   0  0  0  0  0  0  0  0  0  0  0  0
    0.1328  -51.4690  -17.2194 C   0  0  0  0  0  0  0  0  0  0  0  0
    3.0079  -50.1728  -15.2651 C   0  0  0  0  0  0  0  0  0  0  0  0
    3.6553  -51.0336  -14.3989 C   0  0  0  0  0  0  0  0  0  0  0  0
    4.3636  -50.5773  -13.3167 C   0  0  0  0  0  0  0  0  0  0  0  0
    4.4323  -49.2208  -13.0846 C   0  0  0  0  0  0  0  0  0  0  0  0
    3.7990  -48.3529  -13.9315 C   0  0  0  0  0  0  0  0  0  0  0  0
    3.0835  -48.8222  -15.0281 C   0  0  0  0  0  0  0  0  0  0  0  0
    2.3437  -47.6690  -16.0598 S   0  0  0  0  0  0  0  0  0  0  0  0
    2.6882  -46.0639  -15.4433 N   0  0  0  0  0  0  0  0  0  0  0  0
    0.8319  -47.7706  -15.9446 O   0  0  0  0  0  0  0  0  0  0  0  0
    2.7920  -47.7287  -17.4913 O   0  0  0  0  0  0  0  0  0  0  0  0
    2.1526  -45.8775  -14.5694 H   0  0  0  0  0  0  0  0  0  0  0  0
    3.6972  -45.9905  -15.2324 H   0  0  0  0  0  0  0  0  0  0  0  0
    0.6905  -51.0024  -22.4091 O   0  0  0  0  0  0  0  0  0  0  0  0
    3.8454  -49.8451  -23.8607 C   0  0  0  0  0  0  0  0  0  0  0  0
    4.7770  -50.6307  -23.2146 C   0  0  0  0  0  0  0  0  0  0  0  0
    4.4160  -51.5670  -22.2784 C   0  0  0  0  0  0  0  0  0  0  0  0
    3.0437  -51.6920  -22.0038 C   0  0  0  0  0  0  0  0  0  0  0  0
    2.0925  -50.9579  -22.6010 C   0  0  0  0  0  0  0  0  0  0  0  0
    2.5159  -49.9990  -23.5640 C   0  0  0  0  0  0  0  0  0  0  0  0
    3.8145  -47.6705  -24.9257 N   0  0  0  0  0  0  0  0  0  0  0  0
    4.2515  -48.8578  -24.8687 C   0  0  0  0  0  0  0  0  0  0  0  0
    5.1856  -49.2643  -25.8579 N   0  0  0  0  0  0  0  0  0  0  0  0
    3.1506  -47.1843  -24.3258 H   0  0  0  0  0  0  0  0  0  0  0  0
    4.8172  -49.2923  -26.8435 H   0  0  0  0  0  0  0  0  0  0  0  0
    6.1638  -49.5289  -25.7118 H   0  0  0  0  0  0  0  0  0  0  0  0
 39 40  2  0  0  0
 40 41  1  0  0  0
 40 33  1  0  0  0
 33 34  2  0  0  0
 34 35  1  0  0  0
 35 36  2  0  0  0
 36 37  1  0  0  0
 37 32  1  0  0  0
 32  1  1  0  0  0
  1  2  2  0  0  0
  2  3  1  0  0  0
  3  4  2  0  0  0
  4  5  1  0  0  0
  4  6  1  0  0  0
  6  7  2  0  0  0
  7 10  1  0  0  0
 10 11  2  0  0  0
 10 12  1  0  0  0
 12 14  1  0  0  0
 14 15  2  0  0  0
 15 16  1  0  0  0
 16 17  2  0  0  0
 17 20  1  0  0  0
 20 21  2  0  0  0
 21 22  1  0  0  0
 22 23  2  0  0  0
 23 24  1  0  0  0
 24 25  2  0  0  0
 25 26  1  0  0  0
 26 27  1  0  0  0
 26 28  2  0  0  0
 26 29  2  0  0  0
 17 18  1  0  0  0
 18 19  2  0  0  0
 37 38  2  0  0  0
 38 33  1  0  0  0
  7  1  1  0  0  0
 19 14  1  0  0  0
 25 20  1  0  0  0
 39 42  1  0  0  0
 41 43  1  0  0  0
 41 44  1  0  0  0
  5  8  1  0  0  0
  5  9  1  0  0  0
 12 13  1  0  0  0
 27 30  1  0  0  0
 27 31  1  0  0  0
M  END
> <minimizedAffinity>
-7.47280

> <CNNscore>
0.3135801256

> <CNNaffinity>
6.6625337601

> <CNN_VS>
2.0892381668

> <CNNaffinity_variance>
0.2325547189

$$$$
[H]N=C(c1c([H])c([H])c([H])c(Oc2c([H])c([H])c(N([H])[H])c([H])c2C(=O)N([H])c2c([H])c([H])c(-c3c([H])c([H])c([H])c([H])c3S(=O)(=O)N([H])[H])c([H])c2[H])c1[H])N([H])[H]


 44 47  0  0  0  0  0  0  0  0999 V2000
    2.5127  -53.2148  -25.4913 C   0  0  0  0  0  0  0  0  0  0  0  0
    3.2310  -52.8771  -26.6664 C   0  0  0  0  0  0  0  0  0  0  0  0
    2.5999  -52.8649  -27.8812 C   0  0  0  0  0  0  0  0  0  0  0  0
    1.2667  -53.1877  -27.9221 C   0  0  0  0  0  0  0  0  0  0  0  0
    0.6387  -53.1815  -29.1917 N   0  0  0  0  0  0  0  0  0  0  0  0
    0.5716  -53.5081  -26.7837 C   0  0  0  0  0  0  0  0  0  0  0  0
    1.2087  -53.5209  -25.4980 C   0  0  0  0  0  0  0  0  0  0  0  0
   -0.2690  -52.7302  -29.3402 H   0  0  0  0  0  0  0  0  0  0  0  0
    1.1375  -53.6616  -29.9580 H   0  0  0  0  0  0  0  0  0  0  0  0
    0.2627  -53.4959  -24.3494 C   0  0  0  0  0  0  0  0  0  0  0  0
   -0.8062  -54.1763  -24.6463 O   0  0  0  0  0  0  0  0  0  0  0  0
    0.3708  -52.9216  -23.1693 N   0  0  0  0  0  0  0  0  0  0  0  0
   -0.6586  -53.7375  -22.7102 H   0  0  0  0  0  0  0  0  0  0  0  0
    0.4840  -52.3200  -21.9331 C   0  0  0  0  0  0  0  0  0  0  0  0
   -0.0140  -51.0087  -21.7504 C   0  0  0  0  0  0  0  0  0  0  0  0
    0.1467  -50.3289  -20.5645 C   0  0  0  0  0  0  0  0  0  0  0  0
    0.8008  -50.8976  -19.5015 C   0  0  0  0  0  0  0  0  0  0  0  0
    1.2898  -52.1696  -19.6486 C   0  0  0  0  0  0  0  0  0  0  0  0
    1.1343  -52.8629  -20.8368 C   0  0  0  0  0  0  0  0  0  0  0  0
    1.0330  -50.1957  -18.2597 C   0  0  0  0  0  0  0  0  0  0  0  0
    1.9667  -49.1806  -18.1684 C   0  0  0  0  0  0  0  0  0  0  0  0
    2.2210  -48.5326  -16.9866 C   0  0  0  0  0  0  0  0  0  0  0  0
    1.5262  -48.9037  -15.8561 C   0  0  0  0  0  0  0  0  0  0  0  0
    0.5972  -49.9054  -15.9268 C   0  0  0  0  0  0  0  0  0  0  0  0
    0.3431  -50.5576  -17.1288 C   0  0  0  0  0  0  0  0  0  0  0  0
   -0.8584  -51.7815  -17.1420 S   0  0  0  0  0  0  0  0  0  0  0  0
   -2.1466  -51.3132  -16.0484 N   0  0  0  0  0  0  0  0  0  0  0  0
   -0.3080  -53.0497  -16.5111 O   0  0  0  0  0  0  0  0  0  0  0  0
   -1.4618  -52.0542  -18.4894 O   0  0  0  0  0  0  0  0  0  0  0  0
   -1.8389  -51.3889  -15.0560 H   0  0  0  0  0  0  0  0  0  0  0  0
   -2.4119  -50.3323  -16.2365 H   0  0  0  0  0  0  0  0  0  0  0  0
    3.2774  -53.2238  -24.3007 O   0  0  0  0  0  0  0  0  0  0  0  0
    4.1266  -49.7000  -23.7903 C   0  0  0  0  0  0  0  0  0  0  0  0
    5.4925  -49.6915  -23.9817 C   0  0  0  0  0  0  0  0  0  0  0  0
    6.1926  -50.8330  -24.2820 C   0  0  0  0  0  0  0  0  0  0  0  0
    5.4511  -52.0218  -24.3871 C   0  0  0  0  0  0  0  0  0  0  0  0
    4.1224  -52.0913  -24.2135 C   0  0  0  0  0  0  0  0  0  0  0  0
    3.4403  -50.8813  -23.9023 C   0  0  0  0  0  0  0  0  0  0  0  0
    3.3950  -47.4305  -24.2127 N   0  0  0  0  0  0  0  0  0  0  0  0
    3.3945  -48.4651  -23.4822 C   0  0  0  0  0  0  0  0  0  0  0  0
    2.6473  -48.4193  -22.2756 N   0  0  0  0  0  0  0  0  0  0  0  0
    3.8571  -47.2539  -25.1028 H   0  0  0  0  0  0  0  0  0  0  0  0
    2.9923  -47.7334  -21.5556 H   0  0  0  0  0  0  0  0  0  0  0  0
    1.8217  -48.9768  -22.0391 H   0  0  0  0  0  0  0  0  0  0  0  0
 39 40  2  0  0  0
 40 41  1  0  0  0
 40 33  1  0  0  0
 33 34  2  0  0  0
 34 35  1  0  0  0
 35 36  2  0  0  0
 36 37  1  0  0  0
 37 32  1  0  0  0
 32  1  1  0  0  0
  1  2  2  0  0  0
  2  3  1  0  0  0
  3  4  2  0  0  0
  4  5  1  0  0  0
  4  6  1  0  0  0
  6  7  2  0  0  0
  7 10  1  0  0  0
 10 11  2  0  0  0
 10 12  1  0  0  0
 12 14  1  0  0  0
 14 15  2  0  0  0
 15 16  1  0  0  0
 16 17  2  0  0  0
 17 20  1  0  0  0
 20 21  2  0  0  0
 21 22  1  0  0  0
 22 23  2  0  0  0
 23 24  1  0  0  0
 24 25  2  0  0  0
 25 26  1  0  0  0
 26 27  1  0  0  0
 26 28  2  0  0  0
 26 29  2  0  0  0
 17 18  1  0  0  0
 18 19  2  0  0  0
 37 38  2  0  0  0
 38 33  1  0  0  0
  7  1  1  0  0  0
 19 14  1  0  0  0
 25 20  1  0  0  0
 39 42  1  0  0  0
 41 43  1  0  0  0
 41 44  1  0  0  0
  5  8  1  0  0  0
  5  9  1  0  0  0
 12 13  1  0  0  0
 27 30  1  0  0  0
 27 31  1  0  0  0
M  END
> <minimizedAffinity>
-7.37054

> <CNNscore>
0.3086301684

> <CNNaffinity>
6.5992836952

> <CNN_VS>
2.0367381573

> <CNNaffinity_variance>
0.6464356184

$$$$
[H]N=C(c1c([H])c([H])c([H])c(Oc2c([H])c([H])c(N([H])[H])c([H])c2C(=O)N([H])c2c([H])c([H])c(-c3c([H])c([H])c([H])c([H])c3S(=O)(=O)N([H])[H])c([H])c2[H])c1[H])N([H])[H]


 44 47  0  0  0  0  0  0  0  0999 V2000
    2.2383  -53.1267  -25.4005 C   0  0  0  0  0  0  0  0  0  0  0  0
    3.0357  -52.6960  -26.4913 C   0  0  0  0  0  0  0  0  0  0  0  0
    2.5255  -52.6973  -27.7616 C   0  0  0  0  0  0  0  0  0  0  0  0
    1.2339  -53.1253  -27.9408 C   0  0  0  0  0  0  0  0  0  0  0  0
    0.7326  -53.1306  -29.2656 N   0  0  0  0  0  0  0  0  0  0  0  0
    0.4617  -53.5357  -26.8839 C   0  0  0  0  0  0  0  0  0  0  0  0
    0.9712  -53.5366  -25.5424 C   0  0  0  0  0  0  0  0  0  0  0  0
   -0.1910  -52.7496  -29.4923 H   0  0  0  0  0  0  0  0  0  0  0  0
    1.3410  -53.5451  -29.9899 H   0  0  0  0  0  0  0  0  0  0  0  0
   -0.0797  -53.6235  -24.4922 C   0  0  0  0  0  0  0  0  0  0  0  0
   -1.1372  -54.2073  -24.9766 O   0  0  0  0  0  0  0  0  0  0  0  0
   -0.0666  -53.2197  -23.2388 N   0  0  0  0  0  0  0  0  0  0  0  0
   -1.1621  -54.0416  -22.9930 H   0  0  0  0  0  0  0  0  0  0  0  0
   -0.0529  -52.7968  -21.9259 C   0  0  0  0  0  0  0  0  0  0  0  0
   -0.0170  -51.4113  -21.6426 C   0  0  0  0  0  0  0  0  0  0  0  0
    0.0828  -50.9350  -20.3552 C   0  0  0  0  0  0  0  0  0  0  0  0
    0.1517  -51.7890  -19.2841 C   0  0  0  0  0  0  0  0  0  0  0  0
    0.1142  -53.1372  -19.5285 C   0  0  0  0  0  0  0  0  0  0  0  0
    0.0142  -53.6278  -20.8193 C   0  0  0  0  0  0  0  0  0  0  0  0
    0.3085  -51.3265  -17.9239 C   0  0  0  0  0  0  0  0  0  0  0  0
   -0.7311  -51.3911  -17.0154 C   0  0  0  0  0  0  0  0  0  0  0  0
   -0.6045  -50.9217  -15.7329 C   0  0  0  0  0  0  0  0  0  0  0  0
    0.5939  -50.3688  -15.3371 C   0  0  0  0  0  0  0  0  0  0  0  0
    1.6350  -50.2971  -16.2217 C   0  0  0  0  0  0  0  0  0  0  0  0
    1.5004  -50.7762  -17.5205 C   0  0  0  0  0  0  0  0  0  0  0  0
    2.8615  -50.6782  -18.5596 S   0  0  0  0  0  0  0  0  0  0  0  0
    4.2628  -50.2296  -17.6057 N   0  0  0  0  0  0  0  0  0  0  0  0
    2.6977  -49.5061  -19.5128 O   0  0  0  0  0  0  0  0  0  0  0  0
    3.1811  -51.9465  -19.2965 O   0  0  0  0  0  0  0  0  0  0  0  0
    4.2064  -49.2334  -17.3063 H   0  0  0  0  0  0  0  0  0  0  0  0
    4.3038  -50.8247  -16.7618 H   0  0  0  0  0  0  0  0  0  0  0  0
    2.8831  -53.1107  -24.1410 O   0  0  0  0  0  0  0  0  0  0  0  0
    4.6380  -50.4548  -22.3338 C   0  0  0  0  0  0  0  0  0  0  0  0
    3.9022  -49.3349  -22.6608 C   0  0  0  0  0  0  0  0  0  0  0  0
    2.8067  -49.3987  -23.4850 C   0  0  0  0  0  0  0  0  0  0  0  0
    2.4637  -50.6658  -23.9860 C   0  0  0  0  0  0  0  0  0  0  0  0
    3.1396  -51.7895  -23.7017 C   0  0  0  0  0  0  0  0  0  0  0  0
    4.2693  -51.6727  -22.8436 C   0  0  0  0  0  0  0  0  0  0  0  0
    6.8894  -50.9867  -21.6180 N   0  0  0  0  0  0  0  0  0  0  0  0
    5.7994  -50.3669  -21.4398 C   0  0  0  0  0  0  0  0  0  0  0  0
    5.6900  -49.5442  -20.2876 N   0  0  0  0  0  0  0  0  0  0  0  0
    7.1727  -51.6180  -22.3651 H   0  0  0  0  0  0  0  0  0  0  0  0
    5.7214  -50.0508  -19.3655 H   0  0  0  0  0  0  0  0  0  0  0  0
    5.5848  -48.5260  -20.2637 H   0  0  0  0  0  0  0  0  0  0  0  0
 39 40  2  0  0  0
 40 41  1  0  0  0
 40 33  1  0  0  0
 33 34  2  0  0  0
 34 35  1  0  0  0
 35 36  2  0  0  0
 36 37  1  0  0  0
 37 32  1  0  0  0
 32  1  1  0  0  0
  1  2  2  0  0  0
  2  3  1  0  0  0
  3  4  2  0  0  0
  4  5  1  0  0  0
  4  6  1  0  0  0
  6  7  2  0  0  0
  7 10  1  0  0  0
 10 11  2  0  0  0
 10 12  1  0  0  0
 12 14  1  0  0  0
 14 15  2  0  0  0
 15 16  1  0  0  0
 16 17  2  0  0  0
 17 20  1  0  0  0
 20 21  2  0  0  0
 21 22  1  0  0  0
 22 23  2  0  0  0
 23 24  1  0  0  0
 24 25  2  0  0  0
 25 26  1  0  0  0
 26 27  1  0  0  0
 26 28  2  0  0  0
 26 29  2  0  0  0
 17 18  1  0  0  0
 18 19  2  0  0  0
 37 38  2  0  0  0
 38 33  1  0  0  0
  7  1  1  0  0  0
 19 14  1  0  0  0
 25 20  1  0  0  0
 39 42  1  0  0  0
 41 43  1  0  0  0
 41 44  1  0  0  0
  5  8  1  0  0  0
  5  9  1  0  0  0
 12 13  1  0  0  0
 27 30  1  0  0  0
 27 31  1  0  0  0
M  END
> <minimizedAffinity>
-9.67833

> <CNNscore>
0.2993990779

> <CNNaffinity>
6.8614759445

> <CNN_VS>
2.0543196201

> <CNNaffinity_variance>
0.1576200575

$$$$
[H]N1C(=NC2([H])C([H])([H])C([H])([H])C([H])([H])C([H])([H])C([H])([H])C([H])([H])C2([H])[H])O[C@@]2([H])C([H])([H])C([H])([H])C([H])([H])C([H])([H])[C@@]2([H])S1(=O)=O


 22 24  0  0  0  0  0  0  0  0999 V2000
    0.1931  -51.9738  -18.3222 O   0  0  0  0  0  0  0  0  0  0  0  0
    1.0366  -50.7390  -18.2546 S   0  0  0  0  0  0  0  0  0  0  0  0
    0.2412  -49.5375  -17.8259 O   0  0  0  0  0  0  0  0  0  0  0  0
    1.7907  -50.4112  -19.7953 N   0  0  0  0  0  0  0  0  0  0  0  0
    3.0578  -49.7897  -19.7960 C   0  0  0  0  0  0  0  0  0  0  0  0
    3.4140  -49.0927  -20.8019 N   0  0  0  0  0  0  0  0  0  0  0  0
    3.9083  -49.9229  -18.7363 O   0  0  0  0  0  0  0  0  0  0  0  0
    3.5684  -50.1583  -17.4164 C   0  0  0  0  0  0  0  0  0  0  0  0
    3.5203  -48.7941  -16.7118 C   0  0  0  0  0  0  0  0  0  0  0  0
    3.7428  -49.0546  -15.2490 C   0  0  0  0  0  0  0  0  0  0  0  0
    3.0449  -50.2998  -14.8118 C   0  0  0  0  0  0  0  0  0  0  0  0
    1.8583  -50.5843  -15.7347 C   0  0  0  0  0  0  0  0  0  0  0  0
    2.3655  -50.9484  -17.1148 C   0  0  0  0  0  0  0  0  0  0  0  0
    1.2661  -50.6939  -20.6154 H   0  0  0  0  0  0  0  0  0  0  0  0
    2.6015  -48.8858  -21.9665 C   0  0  0  0  0  0  0  0  0  0  0  0
    2.3479  -47.4234  -22.2434 C   0  0  0  0  0  0  0  0  0  0  0  0
    3.3025  -46.8020  -23.2057 C   0  0  0  0  0  0  0  0  0  0  0  0
    4.7194  -46.7385  -22.7461 C   0  0  0  0  0  0  0  0  0  0  0  0
    5.6805  -47.3806  -23.7398 C   0  0  0  0  0  0  0  0  0  0  0  0
    5.1819  -48.6879  -24.2638 C   0  0  0  0  0  0  0  0  0  0  0  0
    4.7179  -49.5496  -23.1346 C   0  0  0  0  0  0  0  0  0  0  0  0
    3.2074  -49.5928  -23.1552 C   0  0  0  0  0  0  0  0  0  0  0  0
  1  2  2  0  0  0
  2  3  2  0  0  0
  2  4  1  0  0  0
  4  5  1  0  0  0
  5  6  2  0  0  0
  6 15  1  0  0  0
 15 16  1  0  0  0
 16 17  1  0  0  0
 17 18  1  0  0  0
 18 19  1  0  0  0
 19 20  1  0  0  0
 20 21  1  0  0  0
 21 22  1  0  0  0
  5  7  1  0  0  0
  7  8  1  0  0  0
  8  9  1  0  0  0
  9 10  1  0  0  0
 10 11  1  0  0  0
 11 12  1  0  0  0
 12 13  1  0  0  0
 13  2  1  0  0  0
 22 15  1  0  0  0
 13  8  1  0  0  0
  4 14  1  0  0  0
M  END
> <minimizedAffinity>
-3.97791

> <CNNscore>
0.3386377990

> <CNNaffinity>
5.1353540421

> <CNN_VS>
1.7390249968

> <CNNaffinity_variance>
0.6506932974

$$$$
[H]N1C(=NC2([H])C([H])([H])C([H])([H])C([H])([H])C([H])([H])C([H])([H])C([H])([H])C2([H])[H])O[C@@]2([H])C([H])([H])C([H])([H])C([H])([H])C([H])([H])[C@@]2([H])S1(=O)=O


 22 24  0  0  0  0  0  0  0  0999 V2000
   -1.2583  -54.7158  -21.4259 O   0  0  0  0  0  0  0  0  0  0  0  0
   -0.6875  -53.3582  -21.1578 S   0  0  0  0  0  0  0  0  0  0  0  0
   -1.6927  -52.2674  -21.4022 O   0  0  0  0  0  0  0  0  0  0  0  0
    0.7271  -53.0690  -22.1402 N   0  0  0  0  0  0  0  0  0  0  0  0
    1.7474  -52.2499  -21.6110 C   0  0  0  0  0  0  0  0  0  0  0  0
    2.5126  -51.6098  -22.4042 N   0  0  0  0  0  0  0  0  0  0  0  0
    1.9279  -52.1320  -20.2628 O   0  0  0  0  0  0  0  0  0  0  0  0
    0.9717  -52.2846  -19.2751 C   0  0  0  0  0  0  0  0  0  0  0  0
    0.4421  -50.8826  -18.9381 C   0  0  0  0  0  0  0  0  0  0  0  0
   -0.1093  -50.9522  -17.5424 C   0  0  0  0  0  0  0  0  0  0  0  0
   -0.8190  -52.2446  -17.3080 C   0  0  0  0  0  0  0  0  0  0  0  0
   -1.3190  -52.8139  -18.6371 C   0  0  0  0  0  0  0  0  0  0  0  0
   -0.1362  -53.2278  -19.4881 C   0  0  0  0  0  0  0  0  0  0  0  0
    0.7350  -53.5166  -23.0497 H   0  0  0  0  0  0  0  0  0  0  0  0
    2.4126  -51.6598  -23.8349 C   0  0  0  0  0  0  0  0  0  0  0  0
    2.5103  -50.2938  -24.4704 C   0  0  0  0  0  0  0  0  0  0  0  0
    3.8833  -49.9137  -24.9107 C   0  0  0  0  0  0  0  0  0  0  0  0
    4.8847  -49.7645  -23.8163 C   0  0  0  0  0  0  0  0  0  0  0  0
    6.1236  -50.6230  -24.0431 C   0  0  0  0  0  0  0  0  0  0  0  0
    5.7922  -52.0090  -24.4922 C   0  0  0  0  0  0  0  0  0  0  0  0
    4.7298  -52.5912  -23.6173 C   0  0  0  0  0  0  0  0  0  0  0  0
    3.4338  -52.6213  -24.3939 C   0  0  0  0  0  0  0  0  0  0  0  0
  1  2  2  0  0  0
  2  3  2  0  0  0
  2  4  1  0  0  0
  4  5  1  0  0  0
  5  6  2  0  0  0
  6 15  1  0  0  0
 15 16  1  0  0  0
 16 17  1  0  0  0
 17 18  1  0  0  0
 18 19  1  0  0  0
 19 20  1  0  0  0
 20 21  1  0  0  0
 21 22  1  0  0  0
  5  7  1  0  0  0
  7  8  1  0  0  0
  8  9  1  0  0  0
  9 10  1  0  0  0
 10 11  1  0  0  0
 11 12  1  0  0  0
 12 13  1  0  0  0
 13  2  1  0  0  0
 22 15  1  0  0  0
 13  8  1  0  0  0
  4 14  1  0  0  0
M  END
> <minimizedAffinity>
-6.49082

> <CNNscore>
0.2963407934

> <CNNaffinity>
5.4607849121

> <CNN_VS>
1.6182533503

> <CNNaffinity_variance>
0.1579985172

$$$$
[H]N1C(=NC2([H])C([H])([H])C([H])([H])C([H])([H])C([H])([H])C([H])([H])C([H])([H])C2([H])[H])O[C@@]2([H])C([H])([H])C([H])([H])C([H])([H])C([H])([H])[C@@]2([H])S1(=O)=O


 22 24  0  0  0  0  0  0  0  0999 V2000
   -1.9728  -54.4790  -20.3653 O   0  0  0  0  0  0  0  0  0  0  0  0
   -1.1886  -53.2658  -20.7575 S   0  0  0  0  0  0  0  0  0  0  0  0
   -2.0705  -52.0631  -20.9464 O   0  0  0  0  0  0  0  0  0  0  0  0
   -0.2834  -53.5526  -22.2231 N   0  0  0  0  0  0  0  0  0  0  0  0
    0.9521  -52.8890  -22.3816 C   0  0  0  0  0  0  0  0  0  0  0  0
    1.3898  -52.6501  -23.5546 N   0  0  0  0  0  0  0  0  0  0  0  0
    1.6860  -52.4986  -21.2986 O   0  0  0  0  0  0  0  0  0  0  0  0
    1.2129  -52.1872  -20.0367 C   0  0  0  0  0  0  0  0  0  0  0  0
    1.0370  -50.6621  -19.9835 C   0  0  0  0  0  0  0  0  0  0  0  0
    1.1078  -50.2686  -18.5353 C   0  0  0  0  0  0  0  0  0  0  0  0
    0.4134  -51.2687  -17.6713 C   0  0  0  0  0  0  0  0  0  0  0  0
   -0.6537  -52.0069  -18.4819 C   0  0  0  0  0  0  0  0  0  0  0  0
    0.0146  -52.8725  -19.5300 C   0  0  0  0  0  0  0  0  0  0  0  0
   -0.7042  -54.1932  -22.8866 H   0  0  0  0  0  0  0  0  0  0  0  0
    0.7024  -53.0147  -24.7603 C   0  0  0  0  0  0  0  0  0  0  0  0
   -0.0824  -51.8671  -25.3492 C   0  0  0  0  0  0  0  0  0  0  0  0
    0.6470  -51.0907  -26.3926 C   0  0  0  0  0  0  0  0  0  0  0  0
    1.8566  -50.3616  -25.9148 C   0  0  0  0  0  0  0  0  0  0  0  0
    3.1018  -50.7142  -26.7201 C   0  0  0  0  0  0  0  0  0  0  0  0
    3.2328  -52.1817  -26.9690 C   0  0  0  0  0  0  0  0  0  0  0  0
    3.0265  -52.9379  -25.6968 C   0  0  0  0  0  0  0  0  0  0  0  0
    1.6732  -53.6082  -25.7529 C   0  0  0  0  0  0  0  0  0  0  0  0
  1  2  2  0  0  0
  2  3  2  0  0  0
  2  4  1  0  0  0
  4  5  1  0  0  0
  5  6  2  0  0  0
  6 15  1  0  0  0
 15 16  1  0  0  0
 16 17  1  0  0  0
 17 18  1  0  0  0
 18 19  1  0  0  0
 19 20  1  0  0  0
 20 21  1  0  0  0
 21 22  1  0  0  0
  5  7  1  0  0  0
  7  8  1  0  0  0
  8  9  1  0  0  0
  9 10  1  0  0  0
 10 11  1  0  0  0
 11 12  1  0  0  0
 12 13  1  0  0  0
 13  2  1  0  0  0
 22 15  1  0  0  0
 13  8  1  0  0  0
  4 14  1  0  0  0
M  END
> <minimizedAffinity>
-5.73486

> <CNNscore>
0.2930023968

> <CNNaffinity>
5.7665119171

> <CNN_VS>
1.6896017790

> <CNNaffinity_variance>
0.5673368573

$$$$
[H]N1C(=NC2([H])C([H])([H])C([H])([H])C([H])([H])C([H])([H])C([H])([H])C([H])([H])C2([H])[H])O[C@@]2([H])C([H])([H])C([H])([H])C([H])([H])C([H])([H])[C@@]2([H])S1(=O)=O


 22 24  0  0  0  0  0  0  0  0999 V2000
    3.8706  -52.4661  -20.2451 O   0  0  0  0  0  0  0  0  0  0  0  0
    3.2388  -51.1601  -19.8764 S   0  0  0  0  0  0  0  0  0  0  0  0
    4.2503  -50.1686  -19.3727 O   0  0  0  0  0  0  0  0  0  0  0  0
    1.9993  -51.3840  -18.6667 N   0  0  0  0  0  0  0  0  0  0  0  0
    0.8912  -50.5100  -18.6812 C   0  0  0  0  0  0  0  0  0  0  0  0
    0.2548  -50.2862  -17.5998 N   0  0  0  0  0  0  0  0  0  0  0  0
    0.4900  -49.9001  -19.8349 O   0  0  0  0  0  0  0  0  0  0  0  0
    1.2741  -49.5855  -20.9302 C   0  0  0  0  0  0  0  0  0  0  0  0
    1.7155  -48.1234  -20.7650 C   0  0  0  0  0  0  0  0  0  0  0  0
    2.0317  -47.6089  -22.1405 C   0  0  0  0  0  0  0  0  0  0  0  0
    2.7170  -48.6514  -22.9607 C   0  0  0  0  0  0  0  0  0  0  0  0
    3.4384  -49.6436  -22.0465 C   0  0  0  0  0  0  0  0  0  0  0  0
    2.4189  -50.4456  -21.2643 C   0  0  0  0  0  0  0  0  0  0  0  0
    2.1487  -52.1446  -18.0135 H   0  0  0  0  0  0  0  0  0  0  0  0
    0.5888  -50.8716  -16.3329 C   0  0  0  0  0  0  0  0  0  0  0  0
    0.7447  -49.8402  -15.2414 C   0  0  0  0  0  0  0  0  0  0  0  0
   -0.4864  -49.6042  -14.4338 C   0  0  0  0  0  0  0  0  0  0  0  0
   -1.6367  -49.0208  -15.1817 C   0  0  0  0  0  0  0  0  0  0  0  0
   -2.9032  -49.8572  -15.0420 C   0  0  0  0  0  0  0  0  0  0  0  0
   -2.6491  -51.3213  -15.1976 C   0  0  0  0  0  0  0  0  0  0  0  0
   -1.8171  -51.5709  -16.4136 C   0  0  0  0  0  0  0  0  0  0  0  0
   -0.4192  -51.9356  -15.9701 C   0  0  0  0  0  0  0  0  0  0  0  0
  1  2  2  0  0  0
  2  3  2  0  0  0
  2  4  1  0  0  0
  4  5  1  0  0  0
  5  6  2  0  0  0
  6 15  1  0  0  0
 15 16  1  0  0  0
 16 17  1  0  0  0
 17 18  1  0  0  0
 18 19  1  0  0  0
 19 20  1  0  0  0
 20 21  1  0  0  0
 21 22  1  0  0  0
  5  7  1  0  0  0
  7  8  1  0  0  0
  8  9  1  0  0  0
  9 10  1  0  0  0
 10 11  1  0  0  0
 11 12  1  0  0  0
 12 13  1  0  0  0
 13  2  1  0  0  0
 22 15  1  0  0  0
 13  8  1  0  0  0
  4 14  1  0  0  0
M  END
> <minimizedAffinity>
-5.01536

> <CNNscore>
0.2926782668

> <CNNaffinity>
5.1605291367

> <CNN_VS>
1.5103746653

> <CNNaffinity_variance>
0.4749135375

$$$$
[H]N1C(=NC2([H])C([H])([H])C([H])([H])C([H])([H])C([H])([H])C([H])([H])C([H])([H])C2([H])[H])O[C@@]2([H])C([H])([H])C([H])([H])C([H])([H])C([H])([H])[C@@]2([H])S1(=O)=O


 22 24  0  0  0  0  0  0  0  0999 V2000
    1.5224  -51.3724  -25.4849 O   0  0  0  0  0  0  0  0  0  0  0  0
    2.3841  -50.7679  -24.4206 S   0  0  0  0  0  0  0  0  0  0  0  0
    3.4911  -51.6940  -24.0000 O   0  0  0  0  0  0  0  0  0  0  0  0
    1.4356  -50.3305  -23.0210 N   0  0  0  0  0  0  0  0  0  0  0  0
    1.8462  -49.2131  -22.2629 C   0  0  0  0  0  0  0  0  0  0  0  0
    1.5421  -49.1478  -21.0268 N   0  0  0  0  0  0  0  0  0  0  0  0
    2.5640  -48.2009  -22.8322 O   0  0  0  0  0  0  0  0  0  0  0  0
    3.4074  -48.2865  -23.9251 C   0  0  0  0  0  0  0  0  0  0  0  0
    4.8324  -48.4743  -23.3828 C   0  0  0  0  0  0  0  0  0  0  0  0
    5.7696  -47.9872  -24.4511 C   0  0  0  0  0  0  0  0  0  0  0  0
    5.2835  -48.3714  -25.8095 C   0  0  0  0  0  0  0  0  0  0  0  0
    4.3948  -49.6131  -25.7138 C   0  0  0  0  0  0  0  0  0  0  0  0
    3.1145  -49.2648  -24.9831 C   0  0  0  0  0  0  0  0  0  0  0  0
    0.6283  -50.9138  -22.8319 H   0  0  0  0  0  0  0  0  0  0  0  0
    0.7933  -50.1526  -20.3276 C   0  0  0  0  0  0  0  0  0  0  0  0
    1.3768  -51.5344  -20.4997 C   0  0  0  0  0  0  0  0  0  0  0  0
    2.3130  -51.9493  -19.4158 C   0  0  0  0  0  0  0  0  0  0  0  0
    3.5661  -51.1476  -19.3150 C   0  0  0  0  0  0  0  0  0  0  0  0
    3.7775  -50.5755  -17.9181 C   0  0  0  0  0  0  0  0  0  0  0  0
    2.5319  -49.9864  -17.3402 C   0  0  0  0  0  0  0  0  0  0  0  0
    1.8807  -49.0842  -18.3376 C   0  0  0  0  0  0  0  0  0  0  0  0
    0.6475  -49.7741  -18.8732 C   0  0  0  0  0  0  0  0  0  0  0  0
  1  2  2  0  0  0
  2  3  2  0  0  0
  2  4  1  0  0  0
  4  5  1  0  0  0
  5  6  2  0  0  0
  6 15  1  0  0  0
 15 16  1  0  0  0
 16 17  1  0  0  0
 17 18  1  0  0  0
 18 19  1  0  0  0
 19 20  1  0  0  0
 20 21  1  0  0  0
 21 22  1  0  0  0
  5  7  1  0  0  0
  7  8  1  0  0  0
  8  9  1  0  0  0
  9 10  1  0  0  0
 10 11  1  0  0  0
 11 12  1  0  0  0
 12 13  1  0  0  0
 13  2  1  0  0  0
 22 15  1  0  0  0
 13  8  1  0  0  0
  4 14  1  0  0  0
M  END
> <minimizedAffinity>
-4.63692

> <CNNscore>
0.2917981446

> <CNNaffinity>
5.3620066643

> <CNN_VS>
1.5646235943

> <CNNaffinity_variance>
0.6401447058

$$$$
[H]N1C(=NC2([H])C([H])([H])C([H])([H])C([H])([H])C([H])([H])C([H])([H])C([H])([H])C2([H])[H])O[C@@]2([H])C([H])([H])C([H])([H])C([H])([H])C([H])([H])[C@@]2([H])S1(=O)=O


 22 24  0  0  0  0  0  0  0  0999 V2000
   -1.9682  -52.3921  -26.6935 O   0  0  0  0  0  0  0  0  0  0  0  0
   -0.7772  -52.6627  -25.8281 S   0  0  0  0  0  0  0  0  0  0  0  0
   -0.6338  -54.1250  -25.5102 O   0  0  0  0  0  0  0  0  0  0  0  0
   -0.8668  -51.7552  -24.3387 N   0  0  0  0  0  0  0  0  0  0  0  0
    0.3415  -51.3291  -23.7467 C   0  0  0  0  0  0  0  0  0  0  0  0
    0.3887  -51.1348  -22.4878 N   0  0  0  0  0  0  0  0  0  0  0  0
    1.4607  -51.1218  -24.5005 O   0  0  0  0  0  0  0  0  0  0  0  0
    1.7845  -51.7293  -25.7003 C   0  0  0  0  0  0  0  0  0  0  0  0
    2.6950  -52.9222  -25.3717 C   0  0  0  0  0  0  0  0  0  0  0  0
    3.4996  -53.2059  -26.6082 C   0  0  0  0  0  0  0  0  0  0  0  0
    2.6714  -53.0393  -27.8392 C   0  0  0  0  0  0  0  0  0  0  0  0
    1.1934  -53.2531  -27.5065 C   0  0  0  0  0  0  0  0  0  0  0  0
    0.7062  -52.1279  -26.6171 C   0  0  0  0  0  0  0  0  0  0  0  0
   -1.7989  -51.5813  -23.9802 H   0  0  0  0  0  0  0  0  0  0  0  0
   -0.7245  -51.3219  -21.6018 C   0  0  0  0  0  0  0  0  0  0  0  0
   -1.5776  -52.5070  -21.9859 C   0  0  0  0  0  0  0  0  0  0  0  0
   -1.2290  -53.7738  -21.2809 C   0  0  0  0  0  0  0  0  0  0  0  0
    0.1256  -54.3188  -21.5826 C   0  0  0  0  0  0  0  0  0  0  0  0
    0.9497  -54.5546  -20.3222 C   0  0  0  0  0  0  0  0  0  0  0  0
    0.8611  -53.4207  -19.3532 C   0  0  0  0  0  0  0  0  0  0  0  0
    1.0829  -52.1232  -20.0606 C   0  0  0  0  0  0  0  0  0  0  0  0
   -0.2431  -51.4071  -20.1732 C   0  0  0  0  0  0  0  0  0  0  0  0
  1  2  2  0  0  0
  2  3  2  0  0  0
  2  4  1  0  0  0
  4  5  1  0  0  0
  5  6  2  0  0  0
  6 15  1  0  0  0
 15 16  1  0  0  0
 16 17  1  0  0  0
 17 18  1  0  0  0
 18 19  1  0  0  0
 19 20  1  0  0  0
 20 21  1  0  0  0
 21 22  1  0  0  0
  5  7  1  0  0  0
  7  8  1  0  0  0
  8  9  1  0  0  0
  9 10  1  0  0  0
 10 11  1  0  0  0
 11 12  1  0  0  0
 12 13  1  0  0  0
 13  2  1  0  0  0
 22 15  1  0  0  0
 13  8  1  0  0  0
  4 14  1  0  0  0
M  END
> <minimizedAffinity>
-5.16618

> <CNNscore>
0.2915132940

> <CNNaffinity>
5.6879734993

> <CNN_VS>
1.6581199169

> <CNNaffinity_variance>
0.2631700635

$$$$
[H]N1C(=NC2([H])C([H])([H])C([H])([H])C([H])([H])C([H])([H])C([H])([H])C([H])([H])C2([H])[H])O[C@@]2([H])C([H])([H])C([H])([H])C([H])([H])C([H])([H])[C@@]2([H])S1(=O)=O


 22 24  0  0  0  0  0  0  0  0999 V2000
    1.4594  -52.5281  -19.6266 O   0  0  0  0  0  0  0  0  0  0  0  0
    1.3493  -51.7057  -20.8725 S   0  0  0  0  0  0  0  0  0  0  0  0
   -0.0379  -51.1595  -21.0650 O   0  0  0  0  0  0  0  0  0  0  0  0
    1.8024  -52.6368  -22.2788 N   0  0  0  0  0  0  0  0  0  0  0  0
    2.4079  -51.9582  -23.3581 C   0  0  0  0  0  0  0  0  0  0  0  0
    2.2972  -52.4299  -24.5370 N   0  0  0  0  0  0  0  0  0  0  0  0
    3.1103  -50.8044  -23.1598 O   0  0  0  0  0  0  0  0  0  0  0  0
    2.9334  -49.8825  -22.1439 C   0  0  0  0  0  0  0  0  0  0  0  0
    2.0178  -48.7770  -22.6910 C   0  0  0  0  0  0  0  0  0  0  0  0
    2.2904  -47.5458  -21.8744 C   0  0  0  0  0  0  0  0  0  0  0  0
    2.4990  -47.8890  -20.4365 C   0  0  0  0  0  0  0  0  0  0  0  0
    1.7872  -49.2021  -20.1049 C   0  0  0  0  0  0  0  0  0  0  0  0
    2.4699  -50.3451  -20.8273 C   0  0  0  0  0  0  0  0  0  0  0  0
    1.6031  -53.6298  -22.2369 H   0  0  0  0  0  0  0  0  0  0  0  0
    1.5833  -53.6323  -24.8594 C   0  0  0  0  0  0  0  0  0  0  0  0
    0.2726  -53.7441  -24.1183 C   0  0  0  0  0  0  0  0  0  0  0  0
   -0.9089  -53.2345  -24.8718 C   0  0  0  0  0  0  0  0  0  0  0  0
   -0.8970  -51.7720  -25.1617 C   0  0  0  0  0  0  0  0  0  0  0  0
   -1.0696  -51.4740  -26.6466 C   0  0  0  0  0  0  0  0  0  0  0  0
   -0.2334  -52.3572  -27.5144 C   0  0  0  0  0  0  0  0  0  0  0  0
    1.1698  -52.3992  -27.0025 C   0  0  0  0  0  0  0  0  0  0  0  0
    1.4025  -53.7444  -26.3543 C   0  0  0  0  0  0  0  0  0  0  0  0
  1  2  2  0  0  0
  2  3  2  0  0  0
  2  4  1  0  0  0
  4  5  1  0  0  0
  5  6  2  0  0  0
  6 15  1  0  0  0
 15 16  1  0  0  0
 16 17  1  0  0  0
 17 18  1  0  0  0
 18 19  1  0  0  0
 19 20  1  0  0  0
 20 21  1  0  0  0
 21 22  1  0  0  0
  5  7  1  0  0  0
  7  8  1  0  0  0
  8  9  1  0  0  0
  9 10  1  0  0  0
 10 11  1  0  0  0
 11 12  1  0  0  0
 12 13  1  0  0  0
 13  2  1  0  0  0
 22 15  1  0  0  0
 13  8  1  0  0  0
  4 14  1  0  0  0
M  END
> <minimizedAffinity>
-5.14555

> <CNNscore>
0.2763718665

> <CNNaffinity>
5.7111849785

> <CNN_VS>
1.5784108639

> <CNNaffinity_variance>
0.3571129441

$$$$
[H]N1C(=NC2([H])C([H])([H])C([H])([H])C([H])([H])C([H])([H])C([H])([H])C([H])([H])C2([H])[H])O[C@@]2([H])C([H])([H])C([H])([H])C([H])([H])C([H])([H])[C@@]2([H])S1(=O)=O


 22 24  0  0  0  0  0  0  0  0999 V2000
    2.6804  -54.1221  -28.3280 O   0  0  0  0  0  0  0  0  0  0  0  0
    2.1480  -53.1044  -27.3681 S   0  0  0  0  0  0  0  0  0  0  0  0
    2.1984  -51.7140  -27.9375 O   0  0  0  0  0  0  0  0  0  0  0  0
    3.0309  -53.1426  -25.8619 N   0  0  0  0  0  0  0  0  0  0  0  0
    2.3365  -52.8200  -24.6763 C   0  0  0  0  0  0  0  0  0  0  0  0
    2.9790  -52.3476  -23.6819 N   0  0  0  0  0  0  0  0  0  0  0  0
    0.9875  -53.0054  -24.5773 O   0  0  0  0  0  0  0  0  0  0  0  0
    0.0648  -52.9960  -25.6077 C   0  0  0  0  0  0  0  0  0  0  0  0
   -0.5234  -51.5785  -25.6748 C   0  0  0  0  0  0  0  0  0  0  0  0
   -1.8699  -51.6994  -26.3300 C   0  0  0  0  0  0  0  0  0  0  0  0
   -1.8405  -52.6972  -27.4402 C   0  0  0  0  0  0  0  0  0  0  0  0
   -0.4182  -52.8252  -27.9892 C   0  0  0  0  0  0  0  0  0  0  0  0
    0.4741  -53.4589  -26.9420 C   0  0  0  0  0  0  0  0  0  0  0  0
    4.0088  -53.4018  -25.9270 H   0  0  0  0  0  0  0  0  0  0  0  0
    4.3945  -52.1121  -23.6762 C   0  0  0  0  0  0  0  0  0  0  0  0
    4.7761  -50.8582  -24.4257 C   0  0  0  0  0  0  0  0  0  0  0  0
    4.9050  -49.6428  -23.5716 C   0  0  0  0  0  0  0  0  0  0  0  0
    3.6440  -49.1845  -22.9214 C   0  0  0  0  0  0  0  0  0  0  0  0
    3.7873  -49.0485  -21.4100 C   0  0  0  0  0  0  0  0  0  0  0  0
    4.5034  -50.2045  -20.7910 C   0  0  0  0  0  0  0  0  0  0  0  0
    3.9307  -51.4905  -21.2924 C   0  0  0  0  0  0  0  0  0  0  0  0
    4.9150  -52.1078  -22.2588 C   0  0  0  0  0  0  0  0  0  0  0  0
  1  2  2  0  0  0
  2  3  2  0  0  0
  2  4  1  0  0  0
  4  5  1  0  0  0
  5  6  2  0  0  0
  6 15  1  0  0  0
 15 16  1  0  0  0
 16 17  1  0  0  0
 17 18  1  0  0  0
 18 19  1  0  0  0
 19 20  1  0  0  0
 20 21  1  0  0  0
 21 22  1  0  0  0
  5  7  1  0  0  0
  7  8  1  0  0  0
  8  9  1  0  0  0
  9 10  1  0  0  0
 10 11  1  0  0  0
 11 12  1  0  0  0
 12 13  1  0  0  0
 13  2  1  0  0  0
 22 15  1  0  0  0
 13  8  1  0  0  0
  4 14  1  0  0  0
M  END
> <minimizedAffinity>
-7.36233

> <CNNscore>
0.2704920769

> <CNNaffinity>
6.0127439499

> <CNN_VS>
1.6263996363

> <CNNaffinity_variance>
0.1241441220

$$$$
[H]N1C(=NC2([H])C([H])([H])C([H])([H])C([H])([H])C([H])([H])C([H])([H])C([H])([H])C2([H])[H])O[C@@]2([H])C([H])([H])C([H])([H])C([H])([H])C([H])([H])[C@@]2([H])S1(=O)=O


 22 24  0  0  0  0  0  0  0  0999 V2000
    3.9795  -51.5757  -23.6031 O   0  0  0  0  0  0  0  0  0  0  0  0
    2.7934  -51.2404  -22.7537 S   0  0  0  0  0  0  0  0  0  0  0  0
    2.0608  -50.0306  -23.2633 O   0  0  0  0  0  0  0  0  0  0  0  0
    3.2679  -50.9705  -21.0948 N   0  0  0  0  0  0  0  0  0  0  0  0
    2.3516  -51.3131  -20.0776 C   0  0  0  0  0  0  0  0  0  0  0  0
    2.4035  -50.7081  -18.9569 N   0  0  0  0  0  0  0  0  0  0  0  0
    1.4101  -52.2821  -20.2745 O   0  0  0  0  0  0  0  0  0  0  0  0
    0.8500  -52.6707  -21.4780 C   0  0  0  0  0  0  0  0  0  0  0  0
   -0.4689  -51.8986  -21.6331 C   0  0  0  0  0  0  0  0  0  0  0  0
   -1.3329  -52.7006  -22.5643 C   0  0  0  0  0  0  0  0  0  0  0  0
   -0.5243  -53.2987  -23.6677 C   0  0  0  0  0  0  0  0  0  0  0  0
    0.7361  -52.4638  -23.9026 C   0  0  0  0  0  0  0  0  0  0  0  0
    1.6557  -52.5867  -22.7052 C   0  0  0  0  0  0  0  0  0  0  0  0
    4.1924  -50.5786  -20.9557 H   0  0  0  0  0  0  0  0  0  0  0  0
    3.3493  -49.6758  -18.6422 C   0  0  0  0  0  0  0  0  0  0  0  0
    2.6867  -48.3471  -18.3681 C   0  0  0  0  0  0  0  0  0  0  0  0
    2.4143  -48.0780  -16.9270 C   0  0  0  0  0  0  0  0  0  0  0  0
    1.4332  -48.9968  -16.2818 C   0  0  0  0  0  0  0  0  0  0  0  0
    1.9954  -49.6580  -15.0288 C   0  0  0  0  0  0  0  0  0  0  0  0
    3.3909  -50.1581  -15.2157 C   0  0  0  0  0  0  0  0  0  0  0  0
    3.4889  -50.9428  -16.4836 C   0  0  0  0  0  0  0  0  0  0  0  0
    4.2371  -50.1143  -17.5023 C   0  0  0  0  0  0  0  0  0  0  0  0
  1  2  2  0  0  0
  2  3  2  0  0  0
  2  4  1  0  0  0
  4  5  1  0  0  0
  5  6  2  0  0  0
  6 15  1  0  0  0
 15 16  1  0  0  0
 16 17  1  0  0  0
 17 18  1  0  0  0
 18 19  1  0  0  0
 19 20  1  0  0  0
 20 21  1  0  0  0
 21 22  1  0  0  0
  5  7  1  0  0  0
  7  8  1  0  0  0
  8  9  1  0  0  0
  9 10  1  0  0  0
 10 11  1  0  0  0
 11 12  1  0  0  0
 12 13  1  0  0  0
 13  2  1  0  0  0
 22 15  1  0  0  0
 13  8  1  0  0  0
  4 14  1  0  0  0
M  END
> <minimizedAffinity>
-4.89944

> <CNNscore>
0.2497184575

> <CNNaffinity>
5.2973260880

> <CNN_VS>
1.3228400946

> <CNNaffinity_variance>
0.4563337266

$$$$
[H]C(=NN([H])C(=S)N([H])C([H])([H])c1c([H])c([H])c(OC([H])(C([H])([H])[H])C([H])([H])[H])c([H])c1[H])c1c([H])c([H])c([N+](=O)[O-])c([H])c1[H]


 28 29  0  0  0  0  0  0  0  0999 V2000
   -0.0563  -53.6252  -27.6813 C   0  0  0  0  0  0  0  0  0  0  0  0
   -0.7533  -52.8320  -28.9186 S   0  0  0  0  0  0  0  0  0  0  0  0
   -0.6803  -53.6259  -26.4194 N   0  0  0  0  0  0  0  0  0  0  0  0
   -1.3955  -52.9131  -26.1826 H   0  0  0  0  0  0  0  0  0  0  0  0
   -0.3314  -54.6228  -25.4351 C   0  0  0  0  0  0  0  0  0  0  0  0
   -0.9034  -53.1291  -21.4527 C   0  0  0  0  0  0  0  0  0  0  0  0
   -0.5924  -52.2819  -22.5171 C   0  0  0  0  0  0  0  0  0  0  0  0
   -0.4125  -52.7785  -23.7870 C   0  0  0  0  0  0  0  0  0  0  0  0
   -0.5322  -54.1245  -24.0542 C   0  0  0  0  0  0  0  0  0  0  0  0
   -0.8388  -54.9285  -22.9847 C   0  0  0  0  0  0  0  0  0  0  0  0
   -1.0274  -54.4599  -21.6881 C   0  0  0  0  0  0  0  0  0  0  0  0
   -1.0732  -52.5857  -20.2052 O   0  0  0  0  0  0  0  0  0  0  0  0
   -0.9277  -52.6438  -17.7892 C   0  0  0  0  0  0  0  0  0  0  0  0
   -0.2032  -52.6693  -19.1344 C   0  0  0  0  0  0  0  0  0  0  0  0
    0.7367  -51.4628  -19.1484 C   0  0  0  0  0  0  0  0  0  0  0  0
    1.1766  -54.3166  -27.8646 N   0  0  0  0  0  0  0  0  0  0  0  0
    1.2339  -55.3705  -27.7511 H   0  0  0  0  0  0  0  0  0  0  0  0
    2.3219  -53.6662  -28.1870 N   0  0  0  0  0  0  0  0  0  0  0  0
    3.0798  -52.8660  -27.6486 C   0  0  0  0  0  0  0  0  0  0  0  0
    2.9756  -52.2905  -26.3294 C   0  0  0  0  0  0  0  0  0  0  0  0
    3.2330  -52.9530  -25.1516 C   0  0  0  0  0  0  0  0  0  0  0  0
    3.1161  -52.3467  -23.9025 C   0  0  0  0  0  0  0  0  0  0  0  0
    2.7303  -51.0318  -23.7835 C   0  0  0  0  0  0  0  0  0  0  0  0
    2.4659  -50.3432  -24.9440 C   0  0  0  0  0  0  0  0  0  0  0  0
    2.5844  -50.9498  -26.1656 C   0  0  0  0  0  0  0  0  0  0  0  0
    2.6131  -50.4182  -22.4980 N   0  0  0  0  0  0  0  0  0  0  0  0
    3.4504  -50.6913  -21.6174 O   0  0  0  0  0  0  0  0  0  0  0  0
    1.5690  -49.5505  -22.3051 O   0  0  0  0  0  0  0  0  0  0  0  0
 13 14  1  0  0  0
 14 15  1  0  0  0
 14 12  1  0  0  0
 12  6  1  0  0  0
  6  7  2  0  0  0
  7  8  1  0  0  0
  8  9  2  0  0  0
  9  5  1  0  0  0
  5  3  1  0  0  0
  3  1  1  0  0  0
  1  2  2  0  0  0
  1 16  1  0  0  0
 16 18  1  0  0  0
 18 19  2  0  0  0
 19 20  1  0  0  0
 20 21  2  0  0  0
 21 22  1  0  0  0
 22 23  2  0  0  0
 23 26  1  0  0  0
 26 27  2  0  0  0
 26 28  1  0  0  0
 23 24  1  0  0  0
 24 25  2  0  0  0
  9 10  1  0  0  0
 10 11  2  0  0  0
 11  6  1  0  0  0
 25 20  1  0  0  0
  3  4  1  0  0  0
 16 17  1  0  0  0
M  CHG 1  26   1
M  CHG 1  28  -1
M  END
> <minimizedAffinity>
-7.43177

> <CNNscore>
0.5686821342

> <CNNaffinity>
6.4137511253

> <CNN_VS>
3.6473855972

> <CNNaffinity_variance>
0.4956335425

$$$$
[H]C(=NN([H])C(=S)N([H])C([H])([H])c1c([H])c([H])c(OC([H])(C([H])([H])[H])C([H])([H])[H])c([H])c1[H])c1c([H])c([H])c([N+](=O)[O-])c([H])c1[H]


 28 29  0  0  0  0  0  0  0  0999 V2000
    0.1491  -53.3858  -27.5181 C   0  0  0  0  0  0  0  0  0  0  0  0
   -0.6212  -52.8693  -28.8543 S   0  0  0  0  0  0  0  0  0  0  0  0
    1.5139  -53.7231  -27.5919 N   0  0  0  0  0  0  0  0  0  0  0  0
    1.8131  -54.7159  -27.6126 H   0  0  0  0  0  0  0  0  0  0  0  0
    2.5184  -52.6870  -27.6401 C   0  0  0  0  0  0  0  0  0  0  0  0
    3.4565  -51.1708  -23.7363 C   0  0  0  0  0  0  0  0  0  0  0  0
    2.8482  -50.3738  -24.7070 C   0  0  0  0  0  0  0  0  0  0  0  0
    2.5548  -50.8768  -25.9530 C   0  0  0  0  0  0  0  0  0  0  0  0
    2.8493  -52.1802  -26.2876 C   0  0  0  0  0  0  0  0  0  0  0  0
    3.4470  -52.9355  -25.3096 C   0  0  0  0  0  0  0  0  0  0  0  0
    3.7575  -52.4589  -24.0395 C   0  0  0  0  0  0  0  0  0  0  0  0
    3.7287  -50.6231  -22.5090 O   0  0  0  0  0  0  0  0  0  0  0  0
    3.5519  -51.5271  -20.2700 C   0  0  0  0  0  0  0  0  0  0  0  0
    4.4359  -51.2063  -21.4746 C   0  0  0  0  0  0  0  0  0  0  0  0
    5.5101  -50.2349  -20.9829 C   0  0  0  0  0  0  0  0  0  0  0  0
   -0.5446  -53.4991  -26.2782 N   0  0  0  0  0  0  0  0  0  0  0  0
   -1.0095  -52.6547  -25.8333 H   0  0  0  0  0  0  0  0  0  0  0  0
   -0.6398  -54.6781  -25.6154 N   0  0  0  0  0  0  0  0  0  0  0  0
   -0.6349  -55.0522  -24.4471 C   0  0  0  0  0  0  0  0  0  0  0  0
   -0.5095  -54.2480  -23.2556 C   0  0  0  0  0  0  0  0  0  0  0  0
   -1.0231  -54.5722  -22.0213 C   0  0  0  0  0  0  0  0  0  0  0  0
   -0.8716  -53.7564  -20.9019 C   0  0  0  0  0  0  0  0  0  0  0  0
   -0.1888  -52.5648  -20.9775 C   0  0  0  0  0  0  0  0  0  0  0  0
    0.3363  -52.2135  -22.1989 C   0  0  0  0  0  0  0  0  0  0  0  0
    0.1810  -53.0235  -23.2916 C   0  0  0  0  0  0  0  0  0  0  0  0
   -0.0384  -51.7344  -19.8240 N   0  0  0  0  0  0  0  0  0  0  0  0
   -0.1917  -52.2338  -18.6934 O   0  0  0  0  0  0  0  0  0  0  0  0
    0.2707  -50.4147  -20.0317 O   0  0  0  0  0  0  0  0  0  0  0  0
 13 14  1  0  0  0
 14 15  1  0  0  0
 14 12  1  0  0  0
 12  6  1  0  0  0
  6  7  2  0  0  0
  7  8  1  0  0  0
  8  9  2  0  0  0
  9  5  1  0  0  0
  5  3  1  0  0  0
  3  1  1  0  0  0
  1  2  2  0  0  0
  1 16  1  0  0  0
 16 18  1  0  0  0
 18 19  2  0  0  0
 19 20  1  0  0  0
 20 21  2  0  0  0
 21 22  1  0  0  0
 22 23  2  0  0  0
 23 26  1  0  0  0
 26 27  2  0  0  0
 26 28  1  0  0  0
 23 24  1  0  0  0
 24 25  2  0  0  0
  9 10  1  0  0  0
 10 11  2  0  0  0
 11  6  1  0  0  0
 25 20  1  0  0  0
  3  4  1  0  0  0
 16 17  1  0  0  0
M  CHG 1  26   1
M  CHG 1  28  -1
M  END
> <minimizedAffinity>
-7.02898

> <CNNscore>
0.5065554976

> <CNNaffinity>
6.3572845459

> <CNN_VS>
3.2203173637

> <CNNaffinity_variance>
0.3381336331

$$$$
[H]C(=NN([H])C(=S)N([H])C([H])([H])c1c([H])c([H])c(OC([H])(C([H])([H])[H])C([H])([H])[H])c([H])c1[H])c1c([H])c([H])c([N+](=O)[O-])c([H])c1[H]


 28 29  0  0  0  0  0  0  0  0999 V2000
    0.6124  -53.2129  -26.7363 C   0  0  0  0  0  0  0  0  0  0  0  0
   -0.7158  -52.8212  -27.5897 S   0  0  0  0  0  0  0  0  0  0  0  0
    1.7697  -52.4201  -26.8531 N   0  0  0  0  0  0  0  0  0  0  0  0
    1.7873  -51.5999  -27.4876 H   0  0  0  0  0  0  0  0  0  0  0  0
    2.9517  -52.7399  -26.0879 C   0  0  0  0  0  0  0  0  0  0  0  0
    3.3383  -50.1577  -22.6819 C   0  0  0  0  0  0  0  0  0  0  0  0
    2.8578  -49.6913  -23.9063 C   0  0  0  0  0  0  0  0  0  0  0  0
    2.7407  -50.5335  -24.9873 C   0  0  0  0  0  0  0  0  0  0  0  0
    3.0917  -51.8628  -24.9020 C   0  0  0  0  0  0  0  0  0  0  0  0
    3.5601  -52.2876  -23.6837 C   0  0  0  0  0  0  0  0  0  0  0  0
    3.6913  -51.4633  -22.5702 C   0  0  0  0  0  0  0  0  0  0  0  0
    3.4365  -49.2789  -21.6339 O   0  0  0  0  0  0  0  0  0  0  0  0
    3.2969  -47.2087  -20.3864 C   0  0  0  0  0  0  0  0  0  0  0  0
    2.6774  -48.1429  -21.4249 C   0  0  0  0  0  0  0  0  0  0  0  0
    1.3020  -48.5430  -20.8887 C   0  0  0  0  0  0  0  0  0  0  0  0
    0.6129  -54.3484  -25.8747 N   0  0  0  0  0  0  0  0  0  0  0  0
    1.5032  -54.8984  -25.6965 H   0  0  0  0  0  0  0  0  0  0  0  0
   -0.5129  -54.7753  -25.2510 N   0  0  0  0  0  0  0  0  0  0  0  0
   -1.0254  -54.6515  -24.1435 C   0  0  0  0  0  0  0  0  0  0  0  0
   -0.5240  -53.9157  -23.0079 C   0  0  0  0  0  0  0  0  0  0  0  0
   -0.2029  -52.5781  -23.0075 C   0  0  0  0  0  0  0  0  0  0  0  0
    0.2783  -51.9170  -21.8793 C   0  0  0  0  0  0  0  0  0  0  0  0
    0.4595  -52.5814  -20.6888 C   0  0  0  0  0  0  0  0  0  0  0  0
    0.1471  -53.9202  -20.6583 C   0  0  0  0  0  0  0  0  0  0  0  0
   -0.3252  -54.5589  -21.7733 C   0  0  0  0  0  0  0  0  0  0  0  0
    0.9537  -51.8950  -19.5367 N   0  0  0  0  0  0  0  0  0  0  0  0
    0.1473  -51.3202  -18.7814 O   0  0  0  0  0  0  0  0  0  0  0  0
    2.3085  -51.9089  -19.3259 O   0  0  0  0  0  0  0  0  0  0  0  0
 13 14  1  0  0  0
 14 15  1  0  0  0
 14 12  1  0  0  0
 12  6  1  0  0  0
  6  7  2  0  0  0
  7  8  1  0  0  0
  8  9  2  0  0  0
  9  5  1  0  0  0
  5  3  1  0  0  0
  3  1  1  0  0  0
  1  2  2  0  0  0
  1 16  1  0  0  0
 16 18  1  0  0  0
 18 19  2  0  0  0
 19 20  1  0  0  0
 20 21  2  0  0  0
 21 22  1  0  0  0
 22 23  2  0  0  0
 23 26  1  0  0  0
 26 27  2  0  0  0
 26 28  1  0  0  0
 23 24  1  0  0  0
 24 25  2  0  0  0
  9 10  1  0  0  0
 10 11  2  0  0  0
 11  6  1  0  0  0
 25 20  1  0  0  0
  3  4  1  0  0  0
 16 17  1  0  0  0
M  CHG 1  26   1
M  CHG 1  28  -1
M  END
> <minimizedAffinity>
-6.58579

> <CNNscore>
0.4790318608

> <CNNaffinity>
6.1919779778

> <CNN_VS>
2.9661548138

> <CNNaffinity_variance>
0.3008295298

$$$$
[H]C(=NN([H])C(=S)N([H])C([H])([H])c1c([H])c([H])c(OC([H])(C([H])([H])[H])C([H])([H])[H])c([H])c1[H])c1c([H])c([H])c([N+](=O)[O-])c([H])c1[H]


 28 29  0  0  0  0  0  0  0  0999 V2000
   -0.3839  -52.5842  -26.1841 C   0  0  0  0  0  0  0  0  0  0  0  0
   -1.9105  -52.2535  -26.6376 S   0  0  0  0  0  0  0  0  0  0  0  0
    0.6071  -51.5926  -26.3118 N   0  0  0  0  0  0  0  0  0  0  0  0
    0.3582  -50.5869  -26.2645 H   0  0  0  0  0  0  0  0  0  0  0  0
    1.9880  -51.9644  -26.5110 C   0  0  0  0  0  0  0  0  0  0  0  0
    4.3750  -51.2617  -23.0144 C   0  0  0  0  0  0  0  0  0  0  0  0
    4.3460  -52.5058  -23.6459 C   0  0  0  0  0  0  0  0  0  0  0  0
    3.5750  -52.7127  -24.7658 C   0  0  0  0  0  0  0  0  0  0  0  0
    2.8061  -51.7041  -25.3034 C   0  0  0  0  0  0  0  0  0  0  0  0
    2.8583  -50.4941  -24.6574 C   0  0  0  0  0  0  0  0  0  0  0  0
    3.6269  -50.2502  -23.5233 C   0  0  0  0  0  0  0  0  0  0  0  0
    5.1597  -51.1054  -21.9007 O   0  0  0  0  0  0  0  0  0  0  0  0
    6.1414  -48.9208  -21.5470 C   0  0  0  0  0  0  0  0  0  0  0  0
    6.3515  -50.4111  -21.8118 C   0  0  0  0  0  0  0  0  0  0  0  0
    7.1019  -50.5183  -23.1402 C   0  0  0  0  0  0  0  0  0  0  0  0
   -0.0435  -53.8655  -25.6606 N   0  0  0  0  0  0  0  0  0  0  0  0
    0.8718  -54.3363  -25.9206 H   0  0  0  0  0  0  0  0  0  0  0  0
   -0.8659  -54.5364  -24.8166 N   0  0  0  0  0  0  0  0  0  0  0  0
   -1.0493  -54.5987  -23.6054 C   0  0  0  0  0  0  0  0  0  0  0  0
   -0.3553  -53.8831  -22.5621 C   0  0  0  0  0  0  0  0  0  0  0  0
    0.3122  -52.6914  -22.7254 C   0  0  0  0  0  0  0  0  0  0  0  0
    0.9667  -52.0425  -21.6804 C   0  0  0  0  0  0  0  0  0  0  0  0
    0.9780  -52.5714  -20.4108 C   0  0  0  0  0  0  0  0  0  0  0  0
    0.3190  -53.7626  -20.2164 C   0  0  0  0  0  0  0  0  0  0  0  0
   -0.3207  -54.3907  -21.2511 C   0  0  0  0  0  0  0  0  0  0  0  0
    1.6521  -51.8988  -19.3449 N   0  0  0  0  0  0  0  0  0  0  0  0
    0.9786  -51.3260  -18.4678 O   0  0  0  0  0  0  0  0  0  0  0  0
    3.0230  -51.9232  -19.3496 O   0  0  0  0  0  0  0  0  0  0  0  0
 13 14  1  0  0  0
 14 15  1  0  0  0
 14 12  1  0  0  0
 12  6  1  0  0  0
  6  7  2  0  0  0
  7  8  1  0  0  0
  8  9  2  0  0  0
  9  5  1  0  0  0
  5  3  1  0  0  0
  3  1  1  0  0  0
  1  2  2  0  0  0
  1 16  1  0  0  0
 16 18  1  0  0  0
 18 19  2  0  0  0
 19 20  1  0  0  0
 20 21  2  0  0  0
 21 22  1  0  0  0
 22 23  2  0  0  0
 23 26  1  0  0  0
 26 27  2  0  0  0
 26 28  1  0  0  0
 23 24  1  0  0  0
 24 25  2  0  0  0
  9 10  1  0  0  0
 10 11  2  0  0  0
 11  6  1  0  0  0
 25 20  1  0  0  0
  3  4  1  0  0  0
 16 17  1  0  0  0
M  CHG 1  26   1
M  CHG 1  28  -1
M  END
> <minimizedAffinity>
-6.50885

> <CNNscore>
0.4270563126

> <CNNaffinity>
5.8844451904

> <CNN_VS>
2.5129895210

> <CNNaffinity_variance>
0.6243104935

$$$$
[H]C(=NN([H])C(=S)N([H])C([H])([H])c1c([H])c([H])c(OC([H])(C([H])([H])[H])C([H])([H])[H])c([H])c1[H])c1c([H])c([H])c([N+](=O)[O-])c([H])c1[H]


 28 29  0  0  0  0  0  0  0  0999 V2000
   -0.3169  -52.5016  -21.0913 C   0  0  0  0  0  0  0  0  0  0  0  0
    0.0865  -52.7907  -19.5423 S   0  0  0  0  0  0  0  0  0  0  0  0
    0.4594  -51.6090  -21.8544 N   0  0  0  0  0  0  0  0  0  0  0  0
    0.1498  -50.6300  -22.0002 H   0  0  0  0  0  0  0  0  0  0  0  0
    1.7016  -52.0468  -22.4461 C   0  0  0  0  0  0  0  0  0  0  0  0
    3.3478  -49.0574  -25.0483 C   0  0  0  0  0  0  0  0  0  0  0  0
    3.3948  -48.9287  -23.6595 C   0  0  0  0  0  0  0  0  0  0  0  0
    2.8620  -49.8970  -22.8410 C   0  0  0  0  0  0  0  0  0  0  0  0
    2.2647  -51.0249  -23.3593 C   0  0  0  0  0  0  0  0  0  0  0  0
    2.2360  -51.1192  -24.7284 C   0  0  0  0  0  0  0  0  0  0  0  0
    2.7651  -50.1590  -25.5855 C   0  0  0  0  0  0  0  0  0  0  0  0
    3.8930  -48.0648  -25.8215 O   0  0  0  0  0  0  0  0  0  0  0  0
    5.7638  -47.6423  -27.2990 C   0  0  0  0  0  0  0  0  0  0  0  0
    4.3423  -48.1750  -27.1240 C   0  0  0  0  0  0  0  0  0  0  0  0
    3.4465  -47.3423  -28.0423 C   0  0  0  0  0  0  0  0  0  0  0  0
   -1.4461  -53.1426  -21.6792 N   0  0  0  0  0  0  0  0  0  0  0  0
   -2.3594  -52.6200  -21.8193 H   0  0  0  0  0  0  0  0  0  0  0  0
   -1.4068  -54.4372  -22.0806 N   0  0  0  0  0  0  0  0  0  0  0  0
   -1.1522  -55.0476  -23.1137 C   0  0  0  0  0  0  0  0  0  0  0  0
   -0.7639  -54.5072  -24.3941 C   0  0  0  0  0  0  0  0  0  0  0  0
   -0.1101  -55.2032  -25.3843 C   0  0  0  0  0  0  0  0  0  0  0  0
    0.2415  -54.6300  -26.6047 C   0  0  0  0  0  0  0  0  0  0  0  0
   -0.0531  -53.3160  -26.8844 C   0  0  0  0  0  0  0  0  0  0  0  0
   -0.7066  -52.5942  -25.9134 C   0  0  0  0  0  0  0  0  0  0  0  0
   -1.0470  -53.1685  -24.7182 C   0  0  0  0  0  0  0  0  0  0  0  0
    0.3115  -52.7365  -28.1391 N   0  0  0  0  0  0  0  0  0  0  0  0
   -0.5350  -52.6838  -29.0511 O   0  0  0  0  0  0  0  0  0  0  0  0
    1.5924  -52.2646  -28.2685 O   0  0  0  0  0  0  0  0  0  0  0  0
 13 14  1  0  0  0
 14 15  1  0  0  0
 14 12  1  0  0  0
 12  6  1  0  0  0
  6  7  2  0  0  0
  7  8  1  0  0  0
  8  9  2  0  0  0
  9  5  1  0  0  0
  5  3  1  0  0  0
  3  1  1  0  0  0
  1  2  2  0  0  0
  1 16  1  0  0  0
 16 18  1  0  0  0
 18 19  2  0  0  0
 19 20  1  0  0  0
 20 21  2  0  0  0
 21 22  1  0  0  0
 22 23  2  0  0  0
 23 26  1  0  0  0
 26 27  2  0  0  0
 26 28  1  0  0  0
 23 24  1  0  0  0
 24 25  2  0  0  0
  9 10  1  0  0  0
 10 11  2  0  0  0
 11  6  1  0  0  0
 25 20  1  0  0  0
  3  4  1  0  0  0
 16 17  1  0  0  0
M  CHG 1  26   1
M  CHG 1  28  -1
M  END
> <minimizedAffinity>
-6.04609

> <CNNscore>
0.3765548766

> <CNNaffinity>
6.0083808899

> <CNN_VS>
2.2624850273

> <CNNaffinity_variance>
0.1632815897

$$$$
[H]C(=NN([H])C(=S)N([H])C([H])([H])c1c([H])c([H])c(OC([H])(C([H])([H])[H])C([H])([H])[H])c([H])c1[H])c1c([H])c([H])c([N+](=O)[O-])c([H])c1[H]


 28 29  0  0  0  0  0  0  0  0999 V2000
   -0.2830  -53.4885  -26.8782 C   0  0  0  0  0  0  0  0  0  0  0  0
   -0.9661  -52.7556  -28.1595 S   0  0  0  0  0  0  0  0  0  0  0  0
   -0.9215  -53.4302  -25.6249 N   0  0  0  0  0  0  0  0  0  0  0  0
   -1.5483  -52.6389  -25.3869 H   0  0  0  0  0  0  0  0  0  0  0  0
   -0.7112  -54.4753  -24.6511 C   0  0  0  0  0  0  0  0  0  0  0  0
    0.2893  -52.9208  -20.7781 C   0  0  0  0  0  0  0  0  0  0  0  0
   -0.4114  -54.1180  -20.9303 C   0  0  0  0  0  0  0  0  0  0  0  0
   -0.7234  -54.6010  -22.1796 C   0  0  0  0  0  0  0  0  0  0  0  0
   -0.3574  -53.9240  -23.3221 C   0  0  0  0  0  0  0  0  0  0  0  0
    0.3302  -52.7507  -23.1357 C   0  0  0  0  0  0  0  0  0  0  0  0
    0.6622  -52.2335  -21.8872 C   0  0  0  0  0  0  0  0  0  0  0  0
    0.5766  -52.4812  -19.5114 O   0  0  0  0  0  0  0  0  0  0  0  0
    1.3306  -50.2666  -18.8881 C   0  0  0  0  0  0  0  0  0  0  0  0
    0.1917  -51.2842  -18.9374 C   0  0  0  0  0  0  0  0  0  0  0  0
   -0.2386  -51.5301  -17.4904 C   0  0  0  0  0  0  0  0  0  0  0  0
    0.9522  -54.1866  -27.0144 N   0  0  0  0  0  0  0  0  0  0  0  0
    1.0642  -55.1758  -26.6457 H   0  0  0  0  0  0  0  0  0  0  0  0
    2.0310  -53.6241  -27.6131 N   0  0  0  0  0  0  0  0  0  0  0  0
    2.8909  -52.8002  -27.3190 C   0  0  0  0  0  0  0  0  0  0  0  0
    3.0432  -52.0764  -26.0800 C   0  0  0  0  0  0  0  0  0  0  0  0
    2.5270  -50.8278  -25.8212 C   0  0  0  0  0  0  0  0  0  0  0  0
    2.7052  -50.1740  -24.6038 C   0  0  0  0  0  0  0  0  0  0  0  0
    3.4193  -50.7554  -23.5821 C   0  0  0  0  0  0  0  0  0  0  0  0
    3.9479  -52.0040  -23.8112 C   0  0  0  0  0  0  0  0  0  0  0  0
    3.7660  -52.6365  -25.0116 C   0  0  0  0  0  0  0  0  0  0  0  0
    3.5970  -50.0771  -22.3366 N   0  0  0  0  0  0  0  0  0  0  0  0
    3.2832  -48.8749  -22.2511 O   0  0  0  0  0  0  0  0  0  0  0  0
    4.1109  -50.8004  -21.2912 O   0  0  0  0  0  0  0  0  0  0  0  0
 13 14  1  0  0  0
 14 15  1  0  0  0
 14 12  1  0  0  0
 12  6  1  0  0  0
  6  7  2  0  0  0
  7  8  1  0  0  0
  8  9  2  0  0  0
  9  5  1  0  0  0
  5  3  1  0  0  0
  3  1  1  0  0  0
  1  2  2  0  0  0
  1 16  1  0  0  0
 16 18  1  0  0  0
 18 19  2  0  0  0
 19 20  1  0  0  0
 20 21  2  0  0  0
 21 22  1  0  0  0
 22 23  2  0  0  0
 23 26  1  0  0  0
 26 27  2  0  0  0
 26 28  1  0  0  0
 23 24  1  0  0  0
 24 25  2  0  0  0
  9 10  1  0  0  0
 10 11  2  0  0  0
 11  6  1  0  0  0
 25 20  1  0  0  0
  3  4  1  0  0  0
 16 17  1  0  0  0
M  CHG 1  26   1
M  CHG 1  28  -1
M  END
> <minimizedAffinity>
-7.00728

> <CNNscore>
0.3496481180

> <CNNaffinity>
6.1046361923

> <CNN_VS>
2.1344745159

> <CNNaffinity_variance>
0.3410243988

$$$$
[H]C(=NN([H])C(=S)N([H])C([H])([H])c1c([H])c([H])c(OC([H])(C([H])([H])[H])C([H])([H])[H])c([H])c1[H])c1c([H])c([H])c([N+](=O)[O-])c([H])c1[H]


 28 29  0  0  0  0  0  0  0  0999 V2000
    4.5215  -50.8091  -20.8204 C   0  0  0  0  0  0  0  0  0  0  0  0
    5.6099  -49.6026  -20.7462 S   0  0  0  0  0  0  0  0  0  0  0  0
    4.3794  -51.5416  -22.0141 N   0  0  0  0  0  0  0  0  0  0  0  0
    4.1949  -52.5619  -21.9899 H   0  0  0  0  0  0  0  0  0  0  0  0
    4.4890  -50.8791  -23.2924 C   0  0  0  0  0  0  0  0  0  0  0  0
    1.6046  -52.3966  -26.0845 C   0  0  0  0  0  0  0  0  0  0  0  0
    2.4218  -53.2465  -25.3380 C   0  0  0  0  0  0  0  0  0  0  0  0
    3.3408  -52.7422  -24.4476 C   0  0  0  0  0  0  0  0  0  0  0  0
    3.4881  -51.3855  -24.2605 C   0  0  0  0  0  0  0  0  0  0  0  0
    2.6688  -50.5790  -25.0105 C   0  0  0  0  0  0  0  0  0  0  0  0
    1.7289  -51.0553  -25.9196 C   0  0  0  0  0  0  0  0  0  0  0  0
    0.7038  -52.9478  -26.9591 O   0  0  0  0  0  0  0  0  0  0  0  0
   -1.6274  -52.2945  -26.9470 C   0  0  0  0  0  0  0  0  0  0  0  0
   -0.2805  -52.2862  -27.6688 C   0  0  0  0  0  0  0  0  0  0  0  0
   -0.4983  -52.9884  -29.0101 C   0  0  0  0  0  0  0  0  0  0  0  0
    3.7138  -51.1287  -19.6903 N   0  0  0  0  0  0  0  0  0  0  0  0
    3.9905  -51.9074  -19.0238 H   0  0  0  0  0  0  0  0  0  0  0  0
    2.5653  -50.4612  -19.4184 N   0  0  0  0  0  0  0  0  0  0  0  0
    1.3758  -50.5749  -19.6955 C   0  0  0  0  0  0  0  0  0  0  0  0
    0.7434  -51.5888  -20.5045 C   0  0  0  0  0  0  0  0  0  0  0  0
    0.2324  -52.7759  -20.0335 C   0  0  0  0  0  0  0  0  0  0  0  0
   -0.3693  -53.7211  -20.8618 C   0  0  0  0  0  0  0  0  0  0  0  0
   -0.4839  -53.5098  -22.2160 C   0  0  0  0  0  0  0  0  0  0  0  0
    0.0181  -52.3315  -22.7166 C   0  0  0  0  0  0  0  0  0  0  0  0
    0.6070  -51.4104  -21.8927 C   0  0  0  0  0  0  0  0  0  0  0  0
   -1.1027  -54.4850  -23.0580 N   0  0  0  0  0  0  0  0  0  0  0  0
   -0.8993  -54.4422  -24.2860 O   0  0  0  0  0  0  0  0  0  0  0  0
   -1.8972  -55.4265  -22.4559 O   0  0  0  0  0  0  0  0  0  0  0  0
 13 14  1  0  0  0
 14 15  1  0  0  0
 14 12  1  0  0  0
 12  6  1  0  0  0
  6  7  2  0  0  0
  7  8  1  0  0  0
  8  9  2  0  0  0
  9  5  1  0  0  0
  5  3  1  0  0  0
  3  1  1  0  0  0
  1  2  2  0  0  0
  1 16  1  0  0  0
 16 18  1  0  0  0
 18 19  2  0  0  0
 19 20  1  0  0  0
 20 21  2  0  0  0
 21 22  1  0  0  0
 22 23  2  0  0  0
 23 26  1  0  0  0
 26 27  2  0  0  0
 26 28  1  0  0  0
 23 24  1  0  0  0
 24 25  2  0  0  0
  9 10  1  0  0  0
 10 11  2  0  0  0
 11  6  1  0  0  0
 25 20  1  0  0  0
  3  4  1  0  0  0
 16 17  1  0  0  0
M  CHG 1  26   1
M  CHG 1  28  -1
M  END
> <minimizedAffinity>
-6.78997

> <CNNscore>
0.2872481048

> <CNNaffinity>
5.9481096268

> <CNN_VS>
1.7085832357

> <CNNaffinity_variance>
0.0884567201

$$$$
[H]C(=NN([H])C(=S)N([H])C([H])([H])c1c([H])c([H])c(OC([H])(C([H])([H])[H])C([H])([H])[H])c([H])c1[H])c1c([H])c([H])c([N+](=O)[O-])c([H])c1[H]


 28 29  0  0  0  0  0  0  0  0999 V2000
   -0.7621  -53.4052  -22.8830 C   0  0  0  0  0  0  0  0  0  0  0  0
   -1.2992  -54.9284  -23.0758 S   0  0  0  0  0  0  0  0  0  0  0  0
   -0.2974  -52.6877  -24.0014 N   0  0  0  0  0  0  0  0  0  0  0  0
   -0.8444  -51.8948  -24.3858 H   0  0  0  0  0  0  0  0  0  0  0  0
    0.9515  -53.0478  -24.6302 C   0  0  0  0  0  0  0  0  0  0  0  0
    4.2213  -50.6214  -23.2739 C   0  0  0  0  0  0  0  0  0  0  0  0
    4.4050  -51.9472  -23.6688 C   0  0  0  0  0  0  0  0  0  0  0  0
    3.3452  -52.7099  -24.1008 C   0  0  0  0  0  0  0  0  0  0  0  0
    2.0686  -52.1958  -24.1594 C   0  0  0  0  0  0  0  0  0  0  0  0
    1.9240  -50.8893  -23.7639 C   0  0  0  0  0  0  0  0  0  0  0  0
    2.9736  -50.0897  -23.3219 C   0  0  0  0  0  0  0  0  0  0  0  0
    5.3095  -49.9023  -22.8511 O   0  0  0  0  0  0  0  0  0  0  0  0
    6.8994  -49.6588  -21.0415 C   0  0  0  0  0  0  0  0  0  0  0  0
    6.4789  -50.4015  -22.3091 C   0  0  0  0  0  0  0  0  0  0  0  0
    7.6183  -50.2304  -23.3151 C   0  0  0  0  0  0  0  0  0  0  0  0
   -0.7584  -52.7943  -21.5952 N   0  0  0  0  0  0  0  0  0  0  0  0
   -1.3754  -51.9559  -21.3866 H   0  0  0  0  0  0  0  0  0  0  0  0
    0.0271  -53.2497  -20.5882 N   0  0  0  0  0  0  0  0  0  0  0  0
    0.9219  -52.8032  -19.8778 C   0  0  0  0  0  0  0  0  0  0  0  0
    1.4939  -51.4785  -19.8941 C   0  0  0  0  0  0  0  0  0  0  0  0
    0.7959  -50.3150  -20.1207 C   0  0  0  0  0  0  0  0  0  0  0  0
    1.4006  -49.0597  -20.1249 C   0  0  0  0  0  0  0  0  0  0  0  0
    2.7501  -48.9196  -19.8988 C   0  0  0  0  0  0  0  0  0  0  0  0
    3.4748  -50.0655  -19.6692 C   0  0  0  0  0  0  0  0  0  0  0  0
    2.8693  -51.2934  -19.6674 C   0  0  0  0  0  0  0  0  0  0  0  0
    3.3618  -47.6279  -19.9050 N   0  0  0  0  0  0  0  0  0  0  0  0
    3.9873  -47.2584  -20.9167 O   0  0  0  0  0  0  0  0  0  0  0  0
    3.2229  -46.8577  -18.7791 O   0  0  0  0  0  0  0  0  0  0  0  0
 13 14  1  0  0  0
 14 15  1  0  0  0
 14 12  1  0  0  0
 12  6  1  0  0  0
  6  7  2  0  0  0
  7  8  1  0  0  0
  8  9  2  0  0  0
  9  5  1  0  0  0
  5  3  1  0  0  0
  3  1  1  0  0  0
  1  2  2  0  0  0
  1 16  1  0  0  0
 16 18  1  0  0  0
 18 19  2  0  0  0
 19 20  1  0  0  0
 20 21  2  0  0  0
 21 22  1  0  0  0
 22 23  2  0  0  0
 23 26  1  0  0  0
 26 27  2  0  0  0
 26 28  1  0  0  0
 23 24  1  0  0  0
 24 25  2  0  0  0
  9 10  1  0  0  0
 10 11  2  0  0  0
 11  6  1  0  0  0
 25 20  1  0  0  0
  3  4  1  0  0  0
 16 17  1  0  0  0
M  CHG 1  26   1
M  CHG 1  28  -1
M  END
> <minimizedAffinity>
-5.37120

> <CNNscore>
0.2496643811

> <CNNaffinity>
5.7544517517

> <CNN_VS>
1.4366816282

> <CNNaffinity_variance>
0.2871059477

$$$$
[H]C(=NN([H])C(=S)N([H])C([H])([H])c1c([H])c([H])c(OC([H])(C([H])([H])[H])C([H])([H])[H])c([H])c1[H])c1c([H])c([H])c([N+](=O)[O-])c([H])c1[H]


 28 29  0  0  0  0  0  0  0  0999 V2000
   -0.8883  -53.6085  -23.8311 C   0  0  0  0  0  0  0  0  0  0  0  0
   -1.1484  -54.9970  -23.0247 S   0  0  0  0  0  0  0  0  0  0  0  0
   -0.4270  -52.4772  -23.1318 N   0  0  0  0  0  0  0  0  0  0  0  0
   -0.9830  -51.6018  -23.1162 H   0  0  0  0  0  0  0  0  0  0  0  0
    0.8311  -52.5212  -22.4246 C   0  0  0  0  0  0  0  0  0  0  0  0
    0.7445  -50.1094  -18.8759 C   0  0  0  0  0  0  0  0  0  0  0  0
    1.1331  -49.5863  -20.1099 C   0  0  0  0  0  0  0  0  0  0  0  0
    1.1547  -50.3744  -21.2369 C   0  0  0  0  0  0  0  0  0  0  0  0
    0.7953  -51.7033  -21.1896 C   0  0  0  0  0  0  0  0  0  0  0  0
    0.4187  -52.1846  -19.9605 C   0  0  0  0  0  0  0  0  0  0  0  0
    0.3853  -51.4159  -18.8010 C   0  0  0  0  0  0  0  0  0  0  0  0
    0.7394  -49.2832  -17.7815 O   0  0  0  0  0  0  0  0  0  0  0  0
   -0.4232  -48.6787  -15.7457 C   0  0  0  0  0  0  0  0  0  0  0  0
    0.5173  -49.6441  -16.4659 C   0  0  0  0  0  0  0  0  0  0  0  0
    1.8417  -49.6173  -15.7014 C   0  0  0  0  0  0  0  0  0  0  0  0
   -1.1231  -53.5293  -25.2347 N   0  0  0  0  0  0  0  0  0  0  0  0
   -2.0129  -53.0935  -25.6160 H   0  0  0  0  0  0  0  0  0  0  0  0
   -0.2308  -54.0041  -26.1385 N   0  0  0  0  0  0  0  0  0  0  0  0
    0.9246  -53.7597  -26.4704 C   0  0  0  0  0  0  0  0  0  0  0  0
    1.8125  -52.7580  -25.9315 C   0  0  0  0  0  0  0  0  0  0  0  0
    3.0282  -53.0105  -25.3393 C   0  0  0  0  0  0  0  0  0  0  0  0
    3.8469  -52.0022  -24.8349 C   0  0  0  0  0  0  0  0  0  0  0  0
    3.4729  -50.6805  -24.9056 C   0  0  0  0  0  0  0  0  0  0  0  0
    2.2621  -50.3967  -25.4924 C   0  0  0  0  0  0  0  0  0  0  0  0
    1.4664  -51.3961  -25.9845 C   0  0  0  0  0  0  0  0  0  0  0  0
    4.3192  -49.6528  -24.3855 N   0  0  0  0  0  0  0  0  0  0  0  0
    3.8532  -48.5098  -24.2201 O   0  0  0  0  0  0  0  0  0  0  0  0
    5.6161  -49.9898  -24.0940 O   0  0  0  0  0  0  0  0  0  0  0  0
 13 14  1  0  0  0
 14 15  1  0  0  0
 14 12  1  0  0  0
 12  6  1  0  0  0
  6  7  2  0  0  0
  7  8  1  0  0  0
  8  9  2  0  0  0
  9  5  1  0  0  0
  5  3  1  0  0  0
  3  1  1  0  0  0
  1  2  2  0  0  0
  1 16  1  0  0  0
 16 18  1  0  0  0
 18 19  2  0  0  0
 19 20  1  0  0  0
 20 21  2  0  0  0
 21 22  1  0  0  0
 22 23  2  0  0  0
 23 26  1  0  0  0
 26 27  2  0  0  0
 26 28  1  0  0  0
 23 24  1  0  0  0
 24 25  2  0  0  0
  9 10  1  0  0  0
 10 11  2  0  0  0
 11  6  1  0  0  0
 25 20  1  0  0  0
  3  4  1  0  0  0
 16 17  1  0  0  0
M  CHG 1  26   1
M  CHG 1  28  -1
M  END
> <minimizedAffinity>
-5.82708

> <CNNscore>
0.2323246300

> <CNNaffinity>
5.9022941589

> <CNN_VS>
1.3712483644

> <CNNaffinity_variance>
0.1049040332

$$$$
[H]c1nc(N([H])[H])c(C(=O)N([H])c2c([H])nc([H])c([H])c2N2C([H])([H])C([H])([H])C([H])(N([H])[H])C([H])([H])C2([H])[H])nc1-c1c([H])c([H])c(OC([H])([H])[H])c([H])c1[H]


 36 39  0  0  0  0  0  0  0  0999 V2000
   -0.1748  -52.9300  -23.8479 C   0  0  0  0  0  0  0  0  0  0  0  0
   -1.0518  -52.3246  -24.4943 O   0  0  0  0  0  0  0  0  0  0  0  0
    1.0627  -53.3973  -24.3118 N   0  0  0  0  0  0  0  0  0  0  0  0
    1.6664  -53.8743  -23.5707 H   0  0  0  0  0  0  0  0  0  0  0  0
   -0.3725  -52.4266  -20.1709 C   0  0  0  0  0  0  0  0  0  0  0  0
   -1.1165  -53.5149  -19.8035 C   0  0  0  0  0  0  0  0  0  0  0  0
   -1.5623  -54.4200  -20.7277 N   0  0  0  0  0  0  0  0  0  0  0  0
   -1.2636  -54.2392  -22.0373 C   0  0  0  0  0  0  0  0  0  0  0  0
   -1.7141  -55.1652  -23.0307 N   0  0  0  0  0  0  0  0  0  0  0  0
   -0.5247  -53.1623  -22.4207 C   0  0  0  0  0  0  0  0  0  0  0  0
   -0.0959  -52.2798  -21.4760 N   0  0  0  0  0  0  0  0  0  0  0  0
   -1.0826  -55.8963  -23.4152 H   0  0  0  0  0  0  0  0  0  0  0  0
   -2.6787  -55.1023  -23.3668 H   0  0  0  0  0  0  0  0  0  0  0  0
    1.1205  -49.4906  -17.4548 C   0  0  0  0  0  0  0  0  0  0  0  0
    0.4080  -50.5624  -16.9767 C   0  0  0  0  0  0  0  0  0  0  0  0
   -0.0643  -51.4959  -17.8661 C   0  0  0  0  0  0  0  0  0  0  0  0
    0.1198  -51.4472  -19.2239 C   0  0  0  0  0  0  0  0  0  0  0  0
    0.8510  -50.3411  -19.6809 C   0  0  0  0  0  0  0  0  0  0  0  0
    1.3424  -49.3815  -18.8185 C   0  0  0  0  0  0  0  0  0  0  0  0
    0.8454  -48.2198  -15.4240 C   0  0  0  0  0  0  0  0  0  0  0  0
    1.5966  -48.5511  -16.5645 O   0  0  0  0  0  0  0  0  0  0  0  0
    1.6146  -53.2989  -25.6057 C   0  0  0  0  0  0  0  0  0  0  0  0
    1.0858  -53.9357  -26.6876 C   0  0  0  0  0  0  0  0  0  0  0  0
    1.6030  -53.7906  -27.9204 N   0  0  0  0  0  0  0  0  0  0  0  0
    2.6661  -53.0115  -28.1502 C   0  0  0  0  0  0  0  0  0  0  0  0
    3.2430  -52.3446  -27.0996 C   0  0  0  0  0  0  0  0  0  0  0  0
    2.7213  -52.4835  -25.8141 C   0  0  0  0  0  0  0  0  0  0  0  0
    3.3503  -51.8217  -24.7346 N   0  0  0  0  0  0  0  0  0  0  0  0
    4.5123  -52.3025  -24.0430 C   0  0  0  0  0  0  0  0  0  0  0  0
    5.5377  -51.1976  -23.9352 C   0  0  0  0  0  0  0  0  0  0  0  0
    5.1699  -50.0486  -24.8189 C   0  0  0  0  0  0  0  0  0  0  0  0
    6.1019  -48.9327  -24.6060 N   0  0  0  0  0  0  0  0  0  0  0  0
    3.7987  -49.4814  -24.5704 C   0  0  0  0  0  0  0  0  0  0  0  0
    2.7903  -50.5549  -24.2841 C   0  0  0  0  0  0  0  0  0  0  0  0
    5.7198  -48.0771  -25.0205 H   0  0  0  0  0  0  0  0  0  0  0  0
    7.0631  -49.1819  -24.9135 H   0  0  0  0  0  0  0  0  0  0  0  0
 20 21  1  0  0  0
 21 14  1  0  0  0
 14 15  2  0  0  0
 15 16  1  0  0  0
 16 17  2  0  0  0
 17  5  1  0  0  0
  5  6  2  0  0  0
  6  7  1  0  0  0
  7  8  2  0  0  0
  8  9  1  0  0  0
  8 10  1  0  0  0
 10  1  1  0  0  0
  1  2  2  0  0  0
  1  3  1  0  0  0
  3 22  1  0  0  0
 22 23  2  0  0  0
 23 24  1  0  0  0
 24 25  2  0  0  0
 25 26  1  0  0  0
 26 27  2  0  0  0
 27 28  1  0  0  0
 28 29  1  0  0  0
 29 30  1  0  0  0
 30 31  1  0  0  0
 31 32  1  0  0  0
 31 33  1  0  0  0
 33 34  1  0  0  0
 10 11  2  0  0  0
 17 18  1  0  0  0
 18 19  2  0  0  0
 19 14  1  0  0  0
 11  5  1  0  0  0
 27 22  1  0  0  0
 34 28  1  0  0  0
  9 12  1  0  0  0
  9 13  1  0  0  0
  3  4  1  0  0  0
 32 35  1  0  0  0
 32 36  1  0  0  0
M  END
> <minimizedAffinity>
-7.92782

> <CNNscore>
0.7892122269

> <CNNaffinity>
7.2372589111

> <CNN_VS>
5.7117333412

> <CNNaffinity_variance>
0.0245116297

$$$$
[H]c1nc(N([H])[H])c(C(=O)N([H])c2c([H])nc([H])c([H])c2N2C([H])([H])C([H])([H])C([H])(N([H])[H])C([H])([H])C2([H])[H])nc1-c1c([H])c([H])c(OC([H])([H])[H])c([H])c1[H]


 36 39  0  0  0  0  0  0  0  0999 V2000
   -0.3059  -53.0007  -23.9922 C   0  0  0  0  0  0  0  0  0  0  0  0
   -1.2545  -52.4732  -24.6048 O   0  0  0  0  0  0  0  0  0  0  0  0
    0.9107  -53.4529  -24.5218 N   0  0  0  0  0  0  0  0  0  0  0  0
    1.5890  -53.8561  -23.8016 H   0  0  0  0  0  0  0  0  0  0  0  0
   -0.2174  -52.2694  -20.3494 C   0  0  0  0  0  0  0  0  0  0  0  0
   -0.9067  -53.3439  -19.8562 C   0  0  0  0  0  0  0  0  0  0  0  0
   -1.4066  -54.3124  -20.6833 N   0  0  0  0  0  0  0  0  0  0  0  0
   -1.2181  -54.2100  -22.0216 C   0  0  0  0  0  0  0  0  0  0  0  0
   -1.7278  -55.2037  -22.9160 N   0  0  0  0  0  0  0  0  0  0  0  0
   -0.5349  -53.1480  -22.5296 C   0  0  0  0  0  0  0  0  0  0  0  0
   -0.0499  -52.2010  -21.6792 N   0  0  0  0  0  0  0  0  0  0  0  0
   -1.1142  -55.9477  -23.3049 H   0  0  0  0  0  0  0  0  0  0  0  0
   -2.7174  -55.1773  -23.1754 H   0  0  0  0  0  0  0  0  0  0  0  0
    1.3651  -49.2418  -17.7890 C   0  0  0  0  0  0  0  0  0  0  0  0
    1.4248  -49.0827  -19.1514 C   0  0  0  0  0  0  0  0  0  0  0  0
    0.9109  -50.0678  -19.9583 C   0  0  0  0  0  0  0  0  0  0  0  0
    0.3290  -51.2247  -19.5078 C   0  0  0  0  0  0  0  0  0  0  0  0
    0.2830  -51.3575  -18.1124 C   0  0  0  0  0  0  0  0  0  0  0  0
    0.7889  -50.3895  -17.2679 C   0  0  0  0  0  0  0  0  0  0  0  0
    1.5707  -48.2411  -15.6047 C   0  0  0  0  0  0  0  0  0  0  0  0
    1.8801  -48.2545  -16.9755 O   0  0  0  0  0  0  0  0  0  0  0  0
    1.3567  -53.4228  -25.8591 C   0  0  0  0  0  0  0  0  0  0  0  0
    0.8449  -54.2300  -26.8298 C   0  0  0  0  0  0  0  0  0  0  0  0
    1.2546  -54.1516  -28.1082 N   0  0  0  0  0  0  0  0  0  0  0  0
    2.1882  -53.2749  -28.4953 C   0  0  0  0  0  0  0  0  0  0  0  0
    2.7416  -52.4353  -27.5625 C   0  0  0  0  0  0  0  0  0  0  0  0
    2.3301  -52.5027  -26.2321 C   0  0  0  0  0  0  0  0  0  0  0  0
    2.9376  -51.6586  -25.2742 N   0  0  0  0  0  0  0  0  0  0  0  0
    2.3002  -50.5343  -24.6503 C   0  0  0  0  0  0  0  0  0  0  0  0
    2.4916  -50.6031  -23.1528 C   0  0  0  0  0  0  0  0  0  0  0  0
    3.0182  -51.9433  -22.7494 C   0  0  0  0  0  0  0  0  0  0  0  0
    3.3221  -51.9517  -21.3118 N   0  0  0  0  0  0  0  0  0  0  0  0
    4.2963  -52.3458  -23.4338 C   0  0  0  0  0  0  0  0  0  0  0  0
    4.3104  -51.9429  -24.8790 C   0  0  0  0  0  0  0  0  0  0  0  0
    3.8965  -52.7687  -21.0829 H   0  0  0  0  0  0  0  0  0  0  0  0
    2.4577  -51.8458  -20.7443 H   0  0  0  0  0  0  0  0  0  0  0  0
 20 21  1  0  0  0
 21 14  1  0  0  0
 14 15  2  0  0  0
 15 16  1  0  0  0
 16 17  2  0  0  0
 17  5  1  0  0  0
  5  6  2  0  0  0
  6  7  1  0  0  0
  7  8  2  0  0  0
  8  9  1  0  0  0
  8 10  1  0  0  0
 10  1  1  0  0  0
  1  2  2  0  0  0
  1  3  1  0  0  0
  3 22  1  0  0  0
 22 23  2  0  0  0
 23 24  1  0  0  0
 24 25  2  0  0  0
 25 26  1  0  0  0
 26 27  2  0  0  0
 27 28  1  0  0  0
 28 29  1  0  0  0
 29 30  1  0  0  0
 30 31  1  0  0  0
 31 32  1  0  0  0
 31 33  1  0  0  0
 33 34  1  0  0  0
 10 11  2  0  0  0
 17 18  1  0  0  0
 18 19  2  0  0  0
 19 14  1  0  0  0
 11  5  1  0  0  0
 27 22  1  0  0  0
 34 28  1  0  0  0
  9 12  1  0  0  0
  9 13  1  0  0  0
  3  4  1  0  0  0
 32 35  1  0  0  0
 32 36  1  0  0  0
M  END
> <minimizedAffinity>
-7.88589

> <CNNscore>
0.7664123774

> <CNNaffinity>
7.3104209900

> <CNN_VS>
5.6027970314

> <CNNaffinity_variance>
0.0812762827

$$$$
[H]c1nc(N([H])[H])c(C(=O)N([H])c2c([H])nc([H])c([H])c2N2C([H])([H])C([H])([H])C([H])(N([H])[H])C([H])([H])C2([H])[H])nc1-c1c([H])c([H])c(OC([H])([H])[H])c([H])c1[H]


 36 39  0  0  0  0  0  0  0  0999 V2000
    0.3152  -52.1079  -24.1181 C   0  0  0  0  0  0  0  0  0  0  0  0
   -0.5587  -51.7655  -24.9382 O   0  0  0  0  0  0  0  0  0  0  0  0
    1.6880  -51.8279  -24.1614 N   0  0  0  0  0  0  0  0  0  0  0  0
    2.2478  -52.2083  -23.3349 H   0  0  0  0  0  0  0  0  0  0  0  0
   -0.5984  -53.0480  -20.6404 C   0  0  0  0  0  0  0  0  0  0  0  0
   -1.1266  -54.2941  -20.8429 C   0  0  0  0  0  0  0  0  0  0  0  0
   -1.1961  -54.8458  -22.0931 N   0  0  0  0  0  0  0  0  0  0  0  0
   -0.7332  -54.1466  -23.1580 C   0  0  0  0  0  0  0  0  0  0  0  0
   -0.7911  -54.6922  -24.4794 N   0  0  0  0  0  0  0  0  0  0  0  0
   -0.2046  -52.9058  -22.9751 C   0  0  0  0  0  0  0  0  0  0  0  0
   -0.1498  -52.3851  -21.7177 N   0  0  0  0  0  0  0  0  0  0  0  0
    0.0446  -55.1223  -24.9244 H   0  0  0  0  0  0  0  0  0  0  0  0
   -1.6753  -54.6558  -24.9932 H   0  0  0  0  0  0  0  0  0  0  0  0
   -0.3866  -51.2939  -16.7539 C   0  0  0  0  0  0  0  0  0  0  0  0
    0.3185  -50.7379  -17.7925 C   0  0  0  0  0  0  0  0  0  0  0  0
    0.2379  -51.3168  -19.0351 C   0  0  0  0  0  0  0  0  0  0  0  0
   -0.5049  -52.4299  -19.3337 C   0  0  0  0  0  0  0  0  0  0  0  0
   -1.2133  -52.9740  -18.2524 C   0  0  0  0  0  0  0  0  0  0  0  0
   -1.1580  -52.4212  -16.9886 C   0  0  0  0  0  0  0  0  0  0  0  0
    0.9153  -50.1989  -15.0449 C   0  0  0  0  0  0  0  0  0  0  0  0
   -0.3082  -50.7152  -15.5046 O   0  0  0  0  0  0  0  0  0  0  0  0
    2.4101  -51.0993  -25.1289 C   0  0  0  0  0  0  0  0  0  0  0  0
    2.3388  -51.3653  -26.4630 C   0  0  0  0  0  0  0  0  0  0  0  0
    3.0016  -50.6275  -27.3711 N   0  0  0  0  0  0  0  0  0  0  0  0
    3.7676  -49.5910  -27.0118 C   0  0  0  0  0  0  0  0  0  0  0  0
    3.8793  -49.2744  -25.6819 C   0  0  0  0  0  0  0  0  0  0  0  0
    3.2002  -50.0286  -24.7259 C   0  0  0  0  0  0  0  0  0  0  0  0
    3.3562  -49.7154  -23.3560 N   0  0  0  0  0  0  0  0  0  0  0  0
    2.2970  -49.2889  -22.4865 C   0  0  0  0  0  0  0  0  0  0  0  0
    2.3205  -50.1030  -21.2135 C   0  0  0  0  0  0  0  0  0  0  0  0
    3.2296  -51.2816  -21.3578 C   0  0  0  0  0  0  0  0  0  0  0  0
    3.3437  -51.9881  -20.0744 N   0  0  0  0  0  0  0  0  0  0  0  0
    4.6396  -50.9397  -21.7563 C   0  0  0  0  0  0  0  0  0  0  0  0
    4.6843  -49.8345  -22.7701 C   0  0  0  0  0  0  0  0  0  0  0  0
    4.1354  -52.6378  -20.1047 H   0  0  0  0  0  0  0  0  0  0  0  0
    2.4356  -52.4103  -19.7958 H   0  0  0  0  0  0  0  0  0  0  0  0
 20 21  1  0  0  0
 21 14  1  0  0  0
 14 15  2  0  0  0
 15 16  1  0  0  0
 16 17  2  0  0  0
 17  5  1  0  0  0
  5  6  2  0  0  0
  6  7  1  0  0  0
  7  8  2  0  0  0
  8  9  1  0  0  0
  8 10  1  0  0  0
 10  1  1  0  0  0
  1  2  2  0  0  0
  1  3  1  0  0  0
  3 22  1  0  0  0
 22 23  2  0  0  0
 23 24  1  0  0  0
 24 25  2  0  0  0
 25 26  1  0  0  0
 26 27  2  0  0  0
 27 28  1  0  0  0
 28 29  1  0  0  0
 29 30  1  0  0  0
 30 31  1  0  0  0
 31 32  1  0  0  0
 31 33  1  0  0  0
 33 34  1  0  0  0
 10 11  2  0  0  0
 17 18  1  0  0  0
 18 19  2  0  0  0
 19 14  1  0  0  0
 11  5  1  0  0  0
 27 22  1  0  0  0
 34 28  1  0  0  0
  9 12  1  0  0  0
  9 13  1  0  0  0
  3  4  1  0  0  0
 32 35  1  0  0  0
 32 36  1  0  0  0
M  END
> <minimizedAffinity>
-7.83899

> <CNNscore>
0.6780323386

> <CNNaffinity>
7.1935930252

> <CNN_VS>
4.8774886131

> <CNNaffinity_variance>
0.0790384188

$$$$
[H]c1nc(N([H])[H])c(C(=O)N([H])c2c([H])nc([H])c([H])c2N2C([H])([H])C([H])([H])C([H])(N([H])[H])C([H])([H])C2([H])[H])nc1-c1c([H])c([H])c(OC([H])([H])[H])c([H])c1[H]


 36 39  0  0  0  0  0  0  0  0999 V2000
    1.4772  -51.6695  -19.9790 C   0  0  0  0  0  0  0  0  0  0  0  0
    2.5168  -52.2525  -19.6145 O   0  0  0  0  0  0  0  0  0  0  0  0
    1.1413  -50.3210  -19.7949 N   0  0  0  0  0  0  0  0  0  0  0  0
    0.1999  -50.0344  -20.2108 H   0  0  0  0  0  0  0  0  0  0  0  0
   -0.3088  -53.3767  -22.7554 C   0  0  0  0  0  0  0  0  0  0  0  0
   -1.2250  -54.1136  -22.0550 C   0  0  0  0  0  0  0  0  0  0  0  0
   -1.2805  -54.0720  -20.6885 N   0  0  0  0  0  0  0  0  0  0  0  0
   -0.4110  -53.2855  -20.0086 C   0  0  0  0  0  0  0  0  0  0  0  0
   -0.4400  -53.2185  -18.5797 N   0  0  0  0  0  0  0  0  0  0  0  0
    0.5070  -52.5459  -20.6889 C   0  0  0  0  0  0  0  0  0  0  0  0
    0.5360  -52.6095  -22.0492 N   0  0  0  0  0  0  0  0  0  0  0  0
   -0.8987  -52.4278  -18.0841 H   0  0  0  0  0  0  0  0  0  0  0  0
    0.0015  -53.9667  -18.0387 H   0  0  0  0  0  0  0  0  0  0  0  0
   -0.0530  -53.3210  -27.0165 C   0  0  0  0  0  0  0  0  0  0  0  0
   -0.0125  -54.5186  -26.3464 C   0  0  0  0  0  0  0  0  0  0  0  0
   -0.0957  -54.5159  -24.9758 C   0  0  0  0  0  0  0  0  0  0  0  0
   -0.2188  -53.3913  -24.2011 C   0  0  0  0  0  0  0  0  0  0  0  0
   -0.2574  -52.1845  -24.9146 C   0  0  0  0  0  0  0  0  0  0  0  0
   -0.1766  -52.1459  -26.2923 C   0  0  0  0  0  0  0  0  0  0  0  0
   -0.8812  -52.5654  -29.1515 C   0  0  0  0  0  0  0  0  0  0  0  0
    0.0301  -53.3198  -28.3932 O   0  0  0  0  0  0  0  0  0  0  0  0
    1.8856  -49.3045  -19.1618 C   0  0  0  0  0  0  0  0  0  0  0  0
    2.6077  -48.3765  -19.8495 C   0  0  0  0  0  0  0  0  0  0  0  0
    3.2732  -47.3887  -19.2253 N   0  0  0  0  0  0  0  0  0  0  0  0
    3.2613  -47.2646  -17.8932 C   0  0  0  0  0  0  0  0  0  0  0  0
    2.5518  -48.1700  -17.1460 C   0  0  0  0  0  0  0  0  0  0  0  0
    1.8564  -49.2014  -17.7756 C   0  0  0  0  0  0  0  0  0  0  0  0
    1.1621  -50.1505  -16.9905 N   0  0  0  0  0  0  0  0  0  0  0  0
    1.7779  -51.2349  -16.2801 C   0  0  0  0  0  0  0  0  0  0  0  0
    1.2779  -51.2624  -14.8543 C   0  0  0  0  0  0  0  0  0  0  0  0
    0.5361  -50.0048  -14.5310 C   0  0  0  0  0  0  0  0  0  0  0  0
   -0.0544  -50.1007  -13.1889 N   0  0  0  0  0  0  0  0  0  0  0  0
   -0.6112  -49.6994  -15.4552 C   0  0  0  0  0  0  0  0  0  0  0  0
   -0.2851  -50.0273  -16.8826 C   0  0  0  0  0  0  0  0  0  0  0  0
   -0.7494  -49.3587  -13.0615 H   0  0  0  0  0  0  0  0  0  0  0  0
    0.6820  -50.1473  -12.4568 H   0  0  0  0  0  0  0  0  0  0  0  0
 20 21  1  0  0  0
 21 14  1  0  0  0
 14 15  2  0  0  0
 15 16  1  0  0  0
 16 17  2  0  0  0
 17  5  1  0  0  0
  5  6  2  0  0  0
  6  7  1  0  0  0
  7  8  2  0  0  0
  8  9  1  0  0  0
  8 10  1  0  0  0
 10  1  1  0  0  0
  1  2  2  0  0  0
  1  3  1  0  0  0
  3 22  1  0  0  0
 22 23  2  0  0  0
 23 24  1  0  0  0
 24 25  2  0  0  0
 25 26  1  0  0  0
 26 27  2  0  0  0
 27 28  1  0  0  0
 28 29  1  0  0  0
 29 30  1  0  0  0
 30 31  1  0  0  0
 31 32  1  0  0  0
 31 33  1  0  0  0
 33 34  1  0  0  0
 10 11  2  0  0  0
 17 18  1  0  0  0
 18 19  2  0  0  0
 19 14  1  0  0  0
 11  5  1  0  0  0
 27 22  1  0  0  0
 34 28  1  0  0  0
  9 12  1  0  0  0
  9 13  1  0  0  0
  3  4  1  0  0  0
 32 35  1  0  0  0
 32 36  1  0  0  0
M  END
> <minimizedAffinity>
-7.93688

> <CNNscore>
0.5683860183

> <CNNaffinity>
6.9989724159

> <CNN_VS>
3.9781181812

> <CNNaffinity_variance>
0.3707436323

$$$$
[H]c1nc(N([H])[H])c(C(=O)N([H])c2c([H])nc([H])c([H])c2N2C([H])([H])C([H])([H])C([H])(N([H])[H])C([H])([H])C2([H])[H])nc1-c1c([H])c([H])c(OC([H])([H])[H])c([H])c1[H]


 36 39  0  0  0  0  0  0  0  0999 V2000
    0.8545  -51.5715  -20.3553 C   0  0  0  0  0  0  0  0  0  0  0  0
    0.1708  -50.8018  -19.6527 O   0  0  0  0  0  0  0  0  0  0  0  0
    2.2434  -51.5535  -20.5439 N   0  0  0  0  0  0  0  0  0  0  0  0
    2.6180  -52.3268  -21.1786 H   0  0  0  0  0  0  0  0  0  0  0  0
   -0.5583  -53.6205  -23.1154 C   0  0  0  0  0  0  0  0  0  0  0  0
   -1.3496  -54.4871  -22.4112 C   0  0  0  0  0  0  0  0  0  0  0  0
   -1.4389  -54.4250  -21.0473 N   0  0  0  0  0  0  0  0  0  0  0  0
   -0.7299  -53.4864  -20.3739 C   0  0  0  0  0  0  0  0  0  0  0  0
   -0.7987  -53.3933  -18.9478 N   0  0  0  0  0  0  0  0  0  0  0  0
    0.0623  -52.6164  -21.0580 C   0  0  0  0  0  0  0  0  0  0  0  0
    0.1291  -52.7046  -22.4156 N   0  0  0  0  0  0  0  0  0  0  0  0
   -1.3953  -52.6815  -18.4800 H   0  0  0  0  0  0  0  0  0  0  0  0
   -0.2473  -54.0427  -18.3808 H   0  0  0  0  0  0  0  0  0  0  0  0
   -0.2379  -53.6203  -27.3725 C   0  0  0  0  0  0  0  0  0  0  0  0
    0.0913  -54.7491  -26.6639 C   0  0  0  0  0  0  0  0  0  0  0  0
   -0.0179  -54.7295  -25.2952 C   0  0  0  0  0  0  0  0  0  0  0  0
   -0.4380  -53.6521  -24.5586 C   0  0  0  0  0  0  0  0  0  0  0  0
   -0.7668  -52.5150  -25.3110 C   0  0  0  0  0  0  0  0  0  0  0  0
   -0.6703  -52.4954  -26.6880 C   0  0  0  0  0  0  0  0  0  0  0  0
   -0.8034  -52.6724  -29.5165 C   0  0  0  0  0  0  0  0  0  0  0  0
   -0.1296  -53.6364  -28.7473 O   0  0  0  0  0  0  0  0  0  0  0  0
    3.1976  -50.6736  -19.9929 C   0  0  0  0  0  0  0  0  0  0  0  0
    3.2970  -50.4304  -18.6562 C   0  0  0  0  0  0  0  0  0  0  0  0
    4.2447  -49.6220  -18.1496 N   0  0  0  0  0  0  0  0  0  0  0  0
    5.1420  -49.0127  -18.9330 C   0  0  0  0  0  0  0  0  0  0  0  0
    5.0922  -49.2184  -20.2882 C   0  0  0  0  0  0  0  0  0  0  0  0
    4.1161  -50.0525  -20.8317 C   0  0  0  0  0  0  0  0  0  0  0  0
    4.0520  -50.2239  -22.2337 N   0  0  0  0  0  0  0  0  0  0  0  0
    3.1330  -49.5443  -23.1017 C   0  0  0  0  0  0  0  0  0  0  0  0
    3.8798  -48.9494  -24.2732 C   0  0  0  0  0  0  0  0  0  0  0  0
    5.3553  -48.9884  -24.0328 C   0  0  0  0  0  0  0  0  0  0  0  0
    6.0717  -48.5288  -25.2306 N   0  0  0  0  0  0  0  0  0  0  0  0
    5.9053  -50.3567  -23.7346 C   0  0  0  0  0  0  0  0  0  0  0  0
    4.9851  -51.1527  -22.8565 C   0  0  0  0  0  0  0  0  0  0  0  0
    7.0632  -48.7769  -25.1589 H   0  0  0  0  0  0  0  0  0  0  0  0
    5.8797  -47.5251  -25.4214 H   0  0  0  0  0  0  0  0  0  0  0  0
 20 21  1  0  0  0
 21 14  1  0  0  0
 14 15  2  0  0  0
 15 16  1  0  0  0
 16 17  2  0  0  0
 17  5  1  0  0  0
  5  6  2  0  0  0
  6  7  1  0  0  0
  7  8  2  0  0  0
  8  9  1  0  0  0
  8 10  1  0  0  0
 10  1  1  0  0  0
  1  2  2  0  0  0
  1  3  1  0  0  0
  3 22  1  0  0  0
 22 23  2  0  0  0
 23 24  1  0  0  0
 24 25  2  0  0  0
 25 26  1  0  0  0
 26 27  2  0  0  0
 27 28  1  0  0  0
 28 29  1  0  0  0
 29 30  1  0  0  0
 30 31  1  0  0  0
 31 32  1  0  0  0
 31 33  1  0  0  0
 33 34  1  0  0  0
 10 11  2  0  0  0
 17 18  1  0  0  0
 18 19  2  0  0  0
 19 14  1  0  0  0
 11  5  1  0  0  0
 27 22  1  0  0  0
 34 28  1  0  0  0
  9 12  1  0  0  0
  9 13  1  0  0  0
  3  4  1  0  0  0
 32 35  1  0  0  0
 32 36  1  0  0  0
M  END
> <minimizedAffinity>
-8.35440

> <CNNscore>
0.5594171882

> <CNNaffinity>
7.0327134132

> <CNN_VS>
3.9342207909

> <CNNaffinity_variance>
0.0573443286

$$$$
[H]c1nc(N([H])[H])c(C(=O)N([H])c2c([H])nc([H])c([H])c2N2C([H])([H])C([H])([H])C([H])(N([H])[H])C([H])([H])C2([H])[H])nc1-c1c([H])c([H])c(OC([H])([H])[H])c([H])c1[H]


 36 39  0  0  0  0  0  0  0  0999 V2000
    0.6914  -51.3871  -20.3284 C   0  0  0  0  0  0  0  0  0  0  0  0
   -0.1066  -50.4586  -20.0943 O   0  0  0  0  0  0  0  0  0  0  0  0
    2.0150  -51.5120  -19.8840 N   0  0  0  0  0  0  0  0  0  0  0  0
    2.5075  -52.4079  -20.1940 H   0  0  0  0  0  0  0  0  0  0  0  0
   -0.2230  -53.3180  -23.3694 C   0  0  0  0  0  0  0  0  0  0  0  0
   -0.8626  -54.3902  -22.8087 C   0  0  0  0  0  0  0  0  0  0  0  0
   -1.0075  -54.5063  -21.4531 N   0  0  0  0  0  0  0  0  0  0  0  0
   -0.5081  -53.5410  -20.6432 C   0  0  0  0  0  0  0  0  0  0  0  0
   -0.6406  -53.6305  -19.2213 N   0  0  0  0  0  0  0  0  0  0  0  0
    0.1311  -52.4677  -21.1836 C   0  0  0  0  0  0  0  0  0  0  0  0
    0.2585  -52.3819  -22.5370 N   0  0  0  0  0  0  0  0  0  0  0  0
   -1.3743  -53.0984  -18.7116 H   0  0  0  0  0  0  0  0  0  0  0  0
    0.0025  -54.2318  -18.6997 H   0  0  0  0  0  0  0  0  0  0  0  0
    0.3788  -52.8736  -27.5725 C   0  0  0  0  0  0  0  0  0  0  0  0
   -0.8362  -52.5525  -27.0198 C   0  0  0  0  0  0  0  0  0  0  0  0
   -1.0105  -52.7027  -25.6661 C   0  0  0  0  0  0  0  0  0  0  0  0
   -0.0508  -53.1571  -24.7987 C   0  0  0  0  0  0  0  0  0  0  0  0
    1.1786  -53.4763  -25.3934 C   0  0  0  0  0  0  0  0  0  0  0  0
    1.3928  -53.3390  -26.7503 C   0  0  0  0  0  0  0  0  0  0  0  0
   -0.5550  -52.7156  -29.7902 C   0  0  0  0  0  0  0  0  0  0  0  0
    0.5576  -52.7239  -28.9318 O   0  0  0  0  0  0  0  0  0  0  0  0
    2.7607  -50.6319  -19.0732 C   0  0  0  0  0  0  0  0  0  0  0  0
    2.4375  -50.3644  -17.7771 C   0  0  0  0  0  0  0  0  0  0  0  0
    3.1899  -49.5564  -17.0094 N   0  0  0  0  0  0  0  0  0  0  0  0
    4.2979  -48.9714  -17.4786 C   0  0  0  0  0  0  0  0  0  0  0  0
    4.6745  -49.2022  -18.7771 C   0  0  0  0  0  0  0  0  0  0  0  0
    3.9064  -50.0363  -19.5885 C   0  0  0  0  0  0  0  0  0  0  0  0
    4.2848  -50.2335  -20.9364 N   0  0  0  0  0  0  0  0  0  0  0  0
    4.4514  -51.5142  -21.5623 C   0  0  0  0  0  0  0  0  0  0  0  0
    3.7036  -51.5436  -22.8753 C   0  0  0  0  0  0  0  0  0  0  0  0
    2.7907  -50.3646  -22.9888 C   0  0  0  0  0  0  0  0  0  0  0  0
    2.1701  -50.3362  -24.3205 N   0  0  0  0  0  0  0  0  0  0  0  0
    3.4683  -49.0305  -22.8315 C   0  0  0  0  0  0  0  0  0  0  0  0
    4.5217  -49.0582  -21.7634 C   0  0  0  0  0  0  0  0  0  0  0  0
    1.7418  -49.4200  -24.4846 H   0  0  0  0  0  0  0  0  0  0  0  0
    1.5390  -51.1506  -24.4585 H   0  0  0  0  0  0  0  0  0  0  0  0
 20 21  1  0  0  0
 21 14  1  0  0  0
 14 15  2  0  0  0
 15 16  1  0  0  0
 16 17  2  0  0  0
 17  5  1  0  0  0
  5  6  2  0  0  0
  6  7  1  0  0  0
  7  8  2  0  0  0
  8  9  1  0  0  0
  8 10  1  0  0  0
 10  1  1  0  0  0
  1  2  2  0  0  0
  1  3  1  0  0  0
  3 22  1  0  0  0
 22 23  2  0  0  0
 23 24  1  0  0  0
 24 25  2  0  0  0
 25 26  1  0  0  0
 26 27  2  0  0  0
 27 28  1  0  0  0
 28 29  1  0  0  0
 29 30  1  0  0  0
 30 31  1  0  0  0
 31 32  1  0  0  0
 31 33  1  0  0  0
 33 34  1  0  0  0
 10 11  2  0  0  0
 17 18  1  0  0  0
 18 19  2  0  0  0
 19 14  1  0  0  0
 11  5  1  0  0  0
 27 22  1  0  0  0
 34 28  1  0  0  0
  9 12  1  0  0  0
  9 13  1  0  0  0
  3  4  1  0  0  0
 32 35  1  0  0  0
 32 36  1  0  0  0
M  END
> <minimizedAffinity>
-7.83291

> <CNNscore>
0.5483483076

> <CNNaffinity>
7.0522093773

> <CNN_VS>
3.8670670986

> <CNNaffinity_variance>
0.2942469418

$$$$
[H]c1nc(N([H])[H])c(C(=O)N([H])c2c([H])nc([H])c([H])c2N2C([H])([H])C([H])([H])C([H])(N([H])[H])C([H])([H])C2([H])[H])nc1-c1c([H])c([H])c(OC([H])([H])[H])c([H])c1[H]


 36 39  0  0  0  0  0  0  0  0999 V2000
    1.0390  -51.4934  -20.5090 C   0  0  0  0  0  0  0  0  0  0  0  0
    0.3451  -50.6134  -19.9634 O   0  0  0  0  0  0  0  0  0  0  0  0
    2.4376  -51.5687  -20.5666 N   0  0  0  0  0  0  0  0  0  0  0  0
    2.8180  -52.4285  -21.0738 H   0  0  0  0  0  0  0  0  0  0  0  0
   -0.4499  -53.6053  -23.1801 C   0  0  0  0  0  0  0  0  0  0  0  0
   -1.1657  -54.4989  -22.4303 C   0  0  0  0  0  0  0  0  0  0  0  0
   -1.1790  -54.4350  -21.0637 N   0  0  0  0  0  0  0  0  0  0  0  0
   -0.4691  -53.4675  -20.4335 C   0  0  0  0  0  0  0  0  0  0  0  0
   -0.4596  -53.3717  -19.0060 N   0  0  0  0  0  0  0  0  0  0  0  0
    0.2486  -52.5704  -21.1634 C   0  0  0  0  0  0  0  0  0  0  0  0
    0.2408  -52.6612  -22.5224 N   0  0  0  0  0  0  0  0  0  0  0  0
   -1.0553  -52.6815  -18.5058 H   0  0  0  0  0  0  0  0  0  0  0  0
    0.1479  -53.9975  -18.4705 H   0  0  0  0  0  0  0  0  0  0  0  0
   -0.3892  -53.6166  -27.4489 C   0  0  0  0  0  0  0  0  0  0  0  0
    0.2080  -54.6401  -26.7556 C   0  0  0  0  0  0  0  0  0  0  0  0
    0.1784  -54.6185  -25.3829 C   0  0  0  0  0  0  0  0  0  0  0  0
   -0.4114  -53.6377  -24.6279 C   0  0  0  0  0  0  0  0  0  0  0  0
   -1.0125  -52.6069  -25.3648 C   0  0  0  0  0  0  0  0  0  0  0  0
   -1.0038  -52.5929  -26.7453 C   0  0  0  0  0  0  0  0  0  0  0  0
   -0.7114  -52.4834  -29.5529 C   0  0  0  0  0  0  0  0  0  0  0  0
   -0.3616  -53.6351  -28.8276 O   0  0  0  0  0  0  0  0  0  0  0  0
    3.3922  -50.6813  -20.0287 C   0  0  0  0  0  0  0  0  0  0  0  0
    3.3546  -50.2445  -18.7389 C   0  0  0  0  0  0  0  0  0  0  0  0
    4.3019  -49.4338  -18.2353 N   0  0  0  0  0  0  0  0  0  0  0  0
    5.3337  -49.0126  -18.9756 C   0  0  0  0  0  0  0  0  0  0  0  0
    5.4258  -49.4184  -20.2826 C   0  0  0  0  0  0  0  0  0  0  0  0
    4.4525  -50.2582  -20.8224 C   0  0  0  0  0  0  0  0  0  0  0  0
    4.5388  -50.6364  -22.1821 N   0  0  0  0  0  0  0  0  0  0  0  0
    4.4782  -51.9872  -22.6629 C   0  0  0  0  0  0  0  0  0  0  0  0
    3.4842  -52.0829  -23.7972 C   0  0  0  0  0  0  0  0  0  0  0  0
    2.6607  -50.8375  -23.8834 C   0  0  0  0  0  0  0  0  0  0  0  0
    1.7918  -50.8908  -25.0672 N   0  0  0  0  0  0  0  0  0  0  0  0
    3.4570  -49.5688  -24.0248 C   0  0  0  0  0  0  0  0  0  0  0  0
    4.6965  -49.5866  -23.1794 C   0  0  0  0  0  0  0  0  0  0  0  0
    1.4115  -49.9593  -25.2610 H   0  0  0  0  0  0  0  0  0  0  0  0
    1.0849  -51.6479  -24.9807 H   0  0  0  0  0  0  0  0  0  0  0  0
 20 21  1  0  0  0
 21 14  1  0  0  0
 14 15  2  0  0  0
 15 16  1  0  0  0
 16 17  2  0  0  0
 17  5  1  0  0  0
  5  6  2  0  0  0
  6  7  1  0  0  0
  7  8  2  0  0  0
  8  9  1  0  0  0
  8 10  1  0  0  0
 10  1  1  0  0  0
  1  2  2  0  0  0
  1  3  1  0  0  0
  3 22  1  0  0  0
 22 23  2  0  0  0
 23 24  1  0  0  0
 24 25  2  0  0  0
 25 26  1  0  0  0
 26 27  2  0  0  0
 27 28  1  0  0  0
 28 29  1  0  0  0
 29 30  1  0  0  0
 30 31  1  0  0  0
 31 32  1  0  0  0
 31 33  1  0  0  0
 33 34  1  0  0  0
 10 11  2  0  0  0
 17 18  1  0  0  0
 18 19  2  0  0  0
 19 14  1  0  0  0
 11  5  1  0  0  0
 27 22  1  0  0  0
 34 28  1  0  0  0
  9 12  1  0  0  0
  9 13  1  0  0  0
  3  4  1  0  0  0
 32 35  1  0  0  0
 32 36  1  0  0  0
M  END
> <minimizedAffinity>
-8.50692

> <CNNscore>
0.5342644453

> <CNNaffinity>
7.0883431435

> <CNN_VS>
3.7870497704

> <CNNaffinity_variance>
0.2733256817

$$$$
[H]c1nc(N([H])[H])c(C(=O)N([H])c2c([H])nc([H])c([H])c2N2C([H])([H])C([H])([H])C([H])(N([H])[H])C([H])([H])C2([H])[H])nc1-c1c([H])c([H])c(OC([H])([H])[H])c([H])c1[H]


 36 39  0  0  0  0  0  0  0  0999 V2000
    0.5887  -51.2141  -20.0407 C   0  0  0  0  0  0  0  0  0  0  0  0
    0.2349  -50.0859  -20.4352 O   0  0  0  0  0  0  0  0  0  0  0  0
    1.5187  -51.5183  -19.0369 N   0  0  0  0  0  0  0  0  0  0  0  0
    1.6511  -52.5621  -18.8521 H   0  0  0  0  0  0  0  0  0  0  0  0
   -0.5510  -53.4258  -22.8014 C   0  0  0  0  0  0  0  0  0  0  0  0
   -1.2683  -54.3584  -22.1023 C   0  0  0  0  0  0  0  0  0  0  0  0
   -1.3944  -54.2892  -20.7416 N   0  0  0  0  0  0  0  0  0  0  0  0
   -0.7973  -53.2770  -20.0664 C   0  0  0  0  0  0  0  0  0  0  0  0
   -0.9074  -53.1744  -18.6435 N   0  0  0  0  0  0  0  0  0  0  0  0
   -0.0799  -52.3407  -20.7455 C   0  0  0  0  0  0  0  0  0  0  0  0
    0.0263  -52.4380  -22.1000 N   0  0  0  0  0  0  0  0  0  0  0  0
   -1.5821  -52.5199  -18.1987 H   0  0  0  0  0  0  0  0  0  0  0  0
   -0.3075  -53.7591  -18.0558 H   0  0  0  0  0  0  0  0  0  0  0  0
   -0.1130  -53.4363  -27.0481 C   0  0  0  0  0  0  0  0  0  0  0  0
    0.0354  -54.6057  -26.3442 C   0  0  0  0  0  0  0  0  0  0  0  0
   -0.1088  -54.5819  -24.9789 C   0  0  0  0  0  0  0  0  0  0  0  0
   -0.3953  -53.4623  -24.2411 C   0  0  0  0  0  0  0  0  0  0  0  0
   -0.5410  -52.2845  -24.9885 C   0  0  0  0  0  0  0  0  0  0  0  0
   -0.4036  -52.2676  -26.3621 C   0  0  0  0  0  0  0  0  0  0  0  0
   -0.8201  -52.6824  -29.2268 C   0  0  0  0  0  0  0  0  0  0  0  0
    0.0310  -53.4563  -28.4195 O   0  0  0  0  0  0  0  0  0  0  0  0
    2.2728  -50.6364  -18.2357 C   0  0  0  0  0  0  0  0  0  0  0  0
    3.4518  -50.0889  -18.6431 C   0  0  0  0  0  0  0  0  0  0  0  0
    4.1307  -49.2147  -17.8795 N   0  0  0  0  0  0  0  0  0  0  0  0
    3.6834  -48.8354  -16.6770 C   0  0  0  0  0  0  0  0  0  0  0  0
    2.5015  -49.3533  -16.2118 C   0  0  0  0  0  0  0  0  0  0  0  0
    1.7842  -50.2618  -16.9891 C   0  0  0  0  0  0  0  0  0  0  0  0
    0.5880  -50.8177  -16.4801 N   0  0  0  0  0  0  0  0  0  0  0  0
    0.5147  -51.9887  -15.6535 C   0  0  0  0  0  0  0  0  0  0  0  0
   -0.3488  -51.7092  -14.4451 C   0  0  0  0  0  0  0  0  0  0  0  0
   -0.6207  -50.2441  -14.3186 C   0  0  0  0  0  0  0  0  0  0  0  0
   -1.5653  -50.0016  -13.2195 N   0  0  0  0  0  0  0  0  0  0  0  0
   -1.2468  -49.6161  -15.5340 C   0  0  0  0  0  0  0  0  0  0  0  0
   -0.6699  -50.1605  -16.8076 C   0  0  0  0  0  0  0  0  0  0  0  0
   -1.9338  -49.0476  -13.2823 H   0  0  0  0  0  0  0  0  0  0  0  0
   -1.1474  -50.2546  -12.3019 H   0  0  0  0  0  0  0  0  0  0  0  0
 20 21  1  0  0  0
 21 14  1  0  0  0
 14 15  2  0  0  0
 15 16  1  0  0  0
 16 17  2  0  0  0
 17  5  1  0  0  0
  5  6  2  0  0  0
  6  7  1  0  0  0
  7  8  2  0  0  0
  8  9  1  0  0  0
  8 10  1  0  0  0
 10  1  1  0  0  0
  1  2  2  0  0  0
  1  3  1  0  0  0
  3 22  1  0  0  0
 22 23  2  0  0  0
 23 24  1  0  0  0
 24 25  2  0  0  0
 25 26  1  0  0  0
 26 27  2  0  0  0
 27 28  1  0  0  0
 28 29  1  0  0  0
 29 30  1  0  0  0
 30 31  1  0  0  0
 31 32  1  0  0  0
 31 33  1  0  0  0
 33 34  1  0  0  0
 10 11  2  0  0  0
 17 18  1  0  0  0
 18 19  2  0  0  0
 19 14  1  0  0  0
 11  5  1  0  0  0
 27 22  1  0  0  0
 34 28  1  0  0  0
  9 12  1  0  0  0
  9 13  1  0  0  0
  3  4  1  0  0  0
 32 35  1  0  0  0
 32 36  1  0  0  0
M  END
> <minimizedAffinity>
-7.80508

> <CNNscore>
0.5222216845

> <CNNaffinity>
6.8333716393

> <CNN_VS>
3.5685348511

> <CNNaffinity_variance>
0.2836824358

$$$$
[H]c1nc(N([H])[H])c(C(=O)N([H])c2c([H])nc([H])c([H])c2N2C([H])([H])C([H])([H])C([H])(N([H])[H])C([H])([H])C2([H])[H])nc1-c1c([H])c([H])c(OC([H])([H])[H])c([H])c1[H]


 36 39  0  0  0  0  0  0  0  0999 V2000
    1.3082  -52.3925  -22.8242 C   0  0  0  0  0  0  0  0  0  0  0  0
    2.1886  -53.2405  -23.0679 O   0  0  0  0  0  0  0  0  0  0  0  0
    1.1471  -51.1307  -23.4133 N   0  0  0  0  0  0  0  0  0  0  0  0
    0.3042  -50.5774  -23.0604 H   0  0  0  0  0  0  0  0  0  0  0  0
   -0.4356  -52.5822  -19.5477 C   0  0  0  0  0  0  0  0  0  0  0  0
   -1.3947  -53.5190  -19.8225 C   0  0  0  0  0  0  0  0  0  0  0  0
   -1.4934  -54.0989  -21.0578 N   0  0  0  0  0  0  0  0  0  0  0  0
   -0.6247  -53.7409  -22.0347 C   0  0  0  0  0  0  0  0  0  0  0  0
   -0.6994  -54.3260  -23.3382 N   0  0  0  0  0  0  0  0  0  0  0  0
    0.3355  -52.8107  -21.7791 C   0  0  0  0  0  0  0  0  0  0  0  0
    0.4071  -52.2524  -20.5388 N   0  0  0  0  0  0  0  0  0  0  0  0
   -0.0596  -55.0943  -23.6241 H   0  0  0  0  0  0  0  0  0  0  0  0
   -1.3985  -53.9776  -23.9994 H   0  0  0  0  0  0  0  0  0  0  0  0
   -0.0946  -50.7714  -15.6966 C   0  0  0  0  0  0  0  0  0  0  0  0
    0.6504  -50.2905  -16.7448 C   0  0  0  0  0  0  0  0  0  0  0  0
    0.5272  -50.8866  -17.9757 C   0  0  0  0  0  0  0  0  0  0  0  0
   -0.2967  -51.9468  -18.2534 C   0  0  0  0  0  0  0  0  0  0  0  0
   -1.0440  -52.4147  -17.1627 C   0  0  0  0  0  0  0  0  0  0  0  0
   -0.9480  -51.8423  -15.9101 C   0  0  0  0  0  0  0  0  0  0  0  0
    1.2806  -50.1145  -13.8278 C   0  0  0  0  0  0  0  0  0  0  0  0
    0.0265  -50.1752  -14.4589 O   0  0  0  0  0  0  0  0  0  0  0  0
    1.9291  -50.5173  -24.4136 C   0  0  0  0  0  0  0  0  0  0  0  0
    2.8213  -49.5220  -24.1509 C   0  0  0  0  0  0  0  0  0  0  0  0
    3.5889  -48.9833  -25.1145 N   0  0  0  0  0  0  0  0  0  0  0  0
    3.5172  -49.3971  -26.3848 C   0  0  0  0  0  0  0  0  0  0  0  0
    2.6365  -50.3967  -26.7113 C   0  0  0  0  0  0  0  0  0  0  0  0
    1.8317  -50.9667  -25.7257 C   0  0  0  0  0  0  0  0  0  0  0  0
    0.9003  -51.9683  -26.0838 N   0  0  0  0  0  0  0  0  0  0  0  0
   -0.5259  -51.8126  -26.0475 C   0  0  0  0  0  0  0  0  0  0  0  0
   -1.1253  -52.2781  -27.3543 C   0  0  0  0  0  0  0  0  0  0  0  0
   -0.0580  -52.4789  -28.3823 C   0  0  0  0  0  0  0  0  0  0  0  0
   -0.6384  -53.0546  -29.6033 N   0  0  0  0  0  0  0  0  0  0  0  0
    1.0370  -53.4254  -27.9716 C   0  0  0  0  0  0  0  0  0  0  0  0
    1.4130  -53.2569  -26.5288 C   0  0  0  0  0  0  0  0  0  0  0  0
    0.1080  -53.4111  -30.2080 H   0  0  0  0  0  0  0  0  0  0  0  0
   -1.2953  -52.3891  -30.0572 H   0  0  0  0  0  0  0  0  0  0  0  0
 20 21  1  0  0  0
 21 14  1  0  0  0
 14 15  2  0  0  0
 15 16  1  0  0  0
 16 17  2  0  0  0
 17  5  1  0  0  0
  5  6  2  0  0  0
  6  7  1  0  0  0
  7  8  2  0  0  0
  8  9  1  0  0  0
  8 10  1  0  0  0
 10  1  1  0  0  0
  1  2  2  0  0  0
  1  3  1  0  0  0
  3 22  1  0  0  0
 22 23  2  0  0  0
 23 24  1  0  0  0
 24 25  2  0  0  0
 25 26  1  0  0  0
 26 27  2  0  0  0
 27 28  1  0  0  0
 28 29  1  0  0  0
 29 30  1  0  0  0
 30 31  1  0  0  0
 31 32  1  0  0  0
 31 33  1  0  0  0
 33 34  1  0  0  0
 10 11  2  0  0  0
 17 18  1  0  0  0
 18 19  2  0  0  0
 19 14  1  0  0  0
 11  5  1  0  0  0
 27 22  1  0  0  0
 34 28  1  0  0  0
  9 12  1  0  0  0
  9 13  1  0  0  0
  3  4  1  0  0  0
 32 35  1  0  0  0
 32 36  1  0  0  0
M  END
> <minimizedAffinity>
-7.45716

> <CNNscore>
0.4923428297

> <CNNaffinity>
7.1915817261

> <CNN_VS>
3.5407238007

> <CNNaffinity_variance>
0.0742114559

$$$$
[H]c1c([H])c(N([H])C(=O)N([H])[C@]([H])(C(=O)N([H])[C@]([H])(C(=O)N([H])[H])C([H])([H])C([H])([H])C([H])([H])[H])C([H])([H])C([H])(C([H])([H])[H])C([H])([H])[H])c([H])c([H])c1Br


 31 31  0  0  0  0  0  0  0  0999 V2000
    1.8331  -51.3634  -23.0099 C   0  0  0  0  0  0  0  0  0  0  0  0
    1.7695  -52.0313  -21.7154 N   0  0  0  0  0  0  0  0  0  0  0  0
    0.9583  -51.4892  -20.6916 C   0  0  0  0  0  0  0  0  0  0  0  0
    0.2879  -50.4252  -20.8976 O   0  0  0  0  0  0  0  0  0  0  0  0
    0.8798  -52.1105  -19.4426 N   0  0  0  0  0  0  0  0  0  0  0  0
    2.3084  -52.8785  -21.5626 H   0  0  0  0  0  0  0  0  0  0  0  0
    1.4790  -52.9956  -19.3493 H   0  0  0  0  0  0  0  0  0  0  0  0
    0.1206  -51.7271  -18.3147 C   0  0  0  0  0  0  0  0  0  0  0  0
    0.2906  -50.5848  -17.5818 C   0  0  0  0  0  0  0  0  0  0  0  0
   -0.5014  -50.2933  -16.4562 C   0  0  0  0  0  0  0  0  0  0  0  0
   -1.4893  -51.1486  -16.0393 C   0  0  0  0  0  0  0  0  0  0  0  0
   -2.5648  -50.7509  -14.5090 Br  0  0  0  0  0  0  0  0  0  0  0  0
   -1.6718  -52.2978  -16.7646 C   0  0  0  0  0  0  0  0  0  0  0  0
   -0.8988  -52.5833  -17.8635 C   0  0  0  0  0  0  0  0  0  0  0  0
    0.4341  -53.3469  -23.6381 N   0  0  0  0  0  0  0  0  0  0  0  0
    0.8053  -51.9771  -23.8508 C   0  0  0  0  0  0  0  0  0  0  0  0
    0.2422  -51.3078  -24.7793 O   0  0  0  0  0  0  0  0  0  0  0  0
    0.9053  -53.8578  -22.8667 H   0  0  0  0  0  0  0  0  0  0  0  0
   -0.5593  -53.9910  -24.4682 C   0  0  0  0  0  0  0  0  0  0  0  0
   -1.1344  -55.1480  -23.7403 C   0  0  0  0  0  0  0  0  0  0  0  0
   -1.2568  -56.4075  -24.4211 N   0  0  0  0  0  0  0  0  0  0  0  0
   -1.5245  -55.1068  -22.5651 O   0  0  0  0  0  0  0  0  0  0  0  0
   -1.3549  -56.3846  -25.4497 H   0  0  0  0  0  0  0  0  0  0  0  0
   -1.2483  -57.3199  -23.9079 H   0  0  0  0  0  0  0  0  0  0  0  0
    0.0572  -54.4799  -25.7440 C   0  0  0  0  0  0  0  0  0  0  0  0
    0.8255  -53.2092  -27.8036 C   0  0  0  0  0  0  0  0  0  0  0  0
   -0.2737  -53.7881  -26.9977 C   0  0  0  0  0  0  0  0  0  0  0  0
    3.2135  -51.2846  -23.5149 C   0  0  0  0  0  0  0  0  0  0  0  0
    3.8674  -52.4435  -24.1243 C   0  0  0  0  0  0  0  0  0  0  0  0
    5.4088  -52.2710  -23.9552 C   0  0  0  0  0  0  0  0  0  0  0  0
    3.7048  -52.5997  -25.6104 C   0  0  0  0  0  0  0  0  0  0  0  0
 26 27  1  0  0  0
 27 25  1  0  0  0
 25 19  1  0  0  0
 19 15  1  0  0  0
 15 16  1  0  0  0
 16 17  2  0  0  0
 16  1  1  0  0  0
  1 28  1  0  0  0
 28 29  1  0  0  0
 29 30  1  0  0  0
 29 31  1  0  0  0
  1  2  1  0  0  0
  2  3  1  0  0  0
  3  4  2  0  0  0
  3  5  1  0  0  0
  5  8  1  0  0  0
  8  9  2  0  0  0
  9 10  1  0  0  0
 10 11  2  0  0  0
 11 12  1  0  0  0
 11 13  1  0  0  0
 13 14  2  0  0  0
 19 20  1  0  0  0
 20 21  1  0  0  0
 20 22  2  0  0  0
 14  8  1  0  0  0
 15 18  1  0  0  0
  2  6  1  0  0  0
  5  7  1  0  0  0
 21 23  1  0  0  0
 21 24  1  0  0  0
M  END
> <minimizedAffinity>
-6.79989

> <CNNscore>
0.6039421558

> <CNNaffinity>
6.4682478905

> <CNN_VS>
3.9064476490

> <CNNaffinity_variance>
0.1168294102

$$$$
[H]c1c([H])c(N([H])C(=O)N([H])[C@]([H])(C(=O)N([H])[C@]([H])(C(=O)N([H])[H])C([H])([H])C([H])([H])C([H])([H])[H])C([H])([H])C([H])(C([H])([H])[H])C([H])([H])[H])c([H])c([H])c1Br


 31 31  0  0  0  0  0  0  0  0999 V2000
    3.2265  -51.2321  -21.6750 C   0  0  0  0  0  0  0  0  0  0  0  0
    2.1289  -50.7297  -22.4927 N   0  0  0  0  0  0  0  0  0  0  0  0
    1.7572  -51.4289  -23.6645 C   0  0  0  0  0  0  0  0  0  0  0  0
    2.3762  -52.4898  -24.0041 O   0  0  0  0  0  0  0  0  0  0  0  0
    0.7086  -50.9684  -24.4648 N   0  0  0  0  0  0  0  0  0  0  0  0
    1.6431  -49.8830  -22.2123 H   0  0  0  0  0  0  0  0  0  0  0  0
    0.2453  -50.0669  -24.1131 H   0  0  0  0  0  0  0  0  0  0  0  0
    0.1920  -51.5354  -25.6511 C   0  0  0  0  0  0  0  0  0  0  0  0
   -1.1222  -51.8230  -25.8986 C   0  0  0  0  0  0  0  0  0  0  0  0
   -1.5452  -52.4090  -27.1056 C   0  0  0  0  0  0  0  0  0  0  0  0
   -0.6512  -52.7207  -28.0981 C   0  0  0  0  0  0  0  0  0  0  0  0
   -1.2279  -53.5174  -29.7380 Br  0  0  0  0  0  0  0  0  0  0  0  0
    0.6699  -52.4377  -27.8643 C   0  0  0  0  0  0  0  0  0  0  0  0
    1.0838  -51.8658  -26.6861 C   0  0  0  0  0  0  0  0  0  0  0  0
    1.2041  -51.8516  -20.3288 N   0  0  0  0  0  0  0  0  0  0  0  0
    2.6309  -51.7480  -20.4424 C   0  0  0  0  0  0  0  0  0  0  0  0
    3.3688  -52.0977  -19.4625 O   0  0  0  0  0  0  0  0  0  0  0  0
    0.6352  -51.5680  -21.1498 H   0  0  0  0  0  0  0  0  0  0  0  0
    0.5826  -52.3329  -19.1152 C   0  0  0  0  0  0  0  0  0  0  0  0
   -0.5295  -53.2508  -19.4618 C   0  0  0  0  0  0  0  0  0  0  0  0
   -0.2994  -54.2890  -20.4282 N   0  0  0  0  0  0  0  0  0  0  0  0
   -1.6644  -53.1861  -18.9692 O   0  0  0  0  0  0  0  0  0  0  0  0
    0.4317  -54.1232  -21.1395 H   0  0  0  0  0  0  0  0  0  0  0  0
   -0.8436  -55.1833  -20.4234 H   0  0  0  0  0  0  0  0  0  0  0  0
    0.0350  -51.1898  -18.3149 C   0  0  0  0  0  0  0  0  0  0  0  0
    1.5407  -49.2672  -17.6202 C   0  0  0  0  0  0  0  0  0  0  0  0
    0.8953  -50.5615  -17.3026 C   0  0  0  0  0  0  0  0  0  0  0  0
    4.3263  -50.2583  -21.5817 C   0  0  0  0  0  0  0  0  0  0  0  0
    5.5424  -50.4056  -22.3826 C   0  0  0  0  0  0  0  0  0  0  0  0
    5.5196  -51.8217  -23.0370 C   0  0  0  0  0  0  0  0  0  0  0  0
    6.8441  -50.4005  -21.6309 C   0  0  0  0  0  0  0  0  0  0  0  0
 26 27  1  0  0  0
 27 25  1  0  0  0
 25 19  1  0  0  0
 19 15  1  0  0  0
 15 16  1  0  0  0
 16 17  2  0  0  0
 16  1  1  0  0  0
  1 28  1  0  0  0
 28 29  1  0  0  0
 29 30  1  0  0  0
 29 31  1  0  0  0
  1  2  1  0  0  0
  2  3  1  0  0  0
  3  4  2  0  0  0
  3  5  1  0  0  0
  5  8  1  0  0  0
  8  9  2  0  0  0
  9 10  1  0  0  0
 10 11  2  0  0  0
 11 12  1  0  0  0
 11 13  1  0  0  0
 13 14  2  0  0  0
 19 20  1  0  0  0
 20 21  1  0  0  0
 20 22  2  0  0  0
 14  8  1  0  0  0
 15 18  1  0  0  0
  2  6  1  0  0  0
  5  7  1  0  0  0
 21 23  1  0  0  0
 21 24  1  0  0  0
M  END
> <minimizedAffinity>
-5.59203

> <CNNscore>
0.4210132360

> <CNNaffinity>
6.0337724686

> <CNN_VS>
2.5402979851

> <CNNaffinity_variance>
0.3943506181

$$$$
[H]c1c([H])c(N([H])C(=O)N([H])[C@]([H])(C(=O)N([H])[C@]([H])(C(=O)N([H])[H])C([H])([H])C([H])([H])C([H])([H])[H])C([H])([H])C([H])(C([H])([H])[H])C([H])([H])[H])c([H])c([H])c1Br


 31 31  0  0  0  0  0  0  0  0999 V2000
    1.0268  -51.4820  -20.3546 C   0  0  0  0  0  0  0  0  0  0  0  0
    0.4067  -52.4987  -21.1959 N   0  0  0  0  0  0  0  0  0  0  0  0
    0.3736  -52.3166  -22.5980 C   0  0  0  0  0  0  0  0  0  0  0  0
    0.8813  -51.2723  -23.1232 O   0  0  0  0  0  0  0  0  0  0  0  0
   -0.2143  -53.2762  -23.4259 N   0  0  0  0  0  0  0  0  0  0  0  0
    0.0050  -53.3266  -20.7662 H   0  0  0  0  0  0  0  0  0  0  0  0
   -0.6237  -54.1202  -22.9052 H   0  0  0  0  0  0  0  0  0  0  0  0
   -0.3281  -53.2734  -24.8340 C   0  0  0  0  0  0  0  0  0  0  0  0
    0.2164  -54.1943  -25.6863 C   0  0  0  0  0  0  0  0  0  0  0  0
    0.0691  -54.1005  -27.0823 C   0  0  0  0  0  0  0  0  0  0  0  0
   -0.6341  -53.0726  -27.6572 C   0  0  0  0  0  0  0  0  0  0  0  0
   -0.8332  -52.9466  -29.5547 Br  0  0  0  0  0  0  0  0  0  0  0  0
   -1.1862  -52.1419  -26.8151 C   0  0  0  0  0  0  0  0  0  0  0  0
   -1.0426  -52.2325  -25.4520 C   0  0  0  0  0  0  0  0  0  0  0  0
    3.2177  -51.2575  -21.5529 N   0  0  0  0  0  0  0  0  0  0  0  0
    2.4706  -51.7101  -20.4143 C   0  0  0  0  0  0  0  0  0  0  0  0
    3.0710  -52.3172  -19.4667 O   0  0  0  0  0  0  0  0  0  0  0  0
    2.6982  -50.7577  -22.3002 H   0  0  0  0  0  0  0  0  0  0  0  0
    4.6412  -51.4897  -21.6549 C   0  0  0  0  0  0  0  0  0  0  0  0
    5.3610  -50.1990  -21.5311 C   0  0  0  0  0  0  0  0  0  0  0  0
    6.7853  -50.2120  -21.3411 N   0  0  0  0  0  0  0  0  0  0  0  0
    4.8129  -49.0890  -21.5804 O   0  0  0  0  0  0  0  0  0  0  0  0
    7.1965  -51.0422  -20.8831 H   0  0  0  0  0  0  0  0  0  0  0  0
    7.3944  -49.4185  -21.6496 H   0  0  0  0  0  0  0  0  0  0  0  0
    4.9804  -52.1079  -22.9777 C   0  0  0  0  0  0  0  0  0  0  0  0
    3.5071  -52.6557  -24.9717 C   0  0  0  0  0  0  0  0  0  0  0  0
    4.2550  -51.6573  -24.1737 C   0  0  0  0  0  0  0  0  0  0  0  0
    0.3735  -51.3912  -19.0387 C   0  0  0  0  0  0  0  0  0  0  0  0
    0.9224  -50.5506  -17.9738 C   0  0  0  0  0  0  0  0  0  0  0  0
   -0.1826  -50.3660  -16.8879 C   0  0  0  0  0  0  0  0  0  0  0  0
    1.2694  -49.1367  -18.3481 C   0  0  0  0  0  0  0  0  0  0  0  0
 26 27  1  0  0  0
 27 25  1  0  0  0
 25 19  1  0  0  0
 19 15  1  0  0  0
 15 16  1  0  0  0
 16 17  2  0  0  0
 16  1  1  0  0  0
  1 28  1  0  0  0
 28 29  1  0  0  0
 29 30  1  0  0  0
 29 31  1  0  0  0
  1  2  1  0  0  0
  2  3  1  0  0  0
  3  4  2  0  0  0
  3  5  1  0  0  0
  5  8  1  0  0  0
  8  9  2  0  0  0
  9 10  1  0  0  0
 10 11  2  0  0  0
 11 12  1  0  0  0
 11 13  1  0  0  0
 13 14  2  0  0  0
 19 20  1  0  0  0
 20 21  1  0  0  0
 20 22  2  0  0  0
 14  8  1  0  0  0
 15 18  1  0  0  0
  2  6  1  0  0  0
  5  7  1  0  0  0
 21 23  1  0  0  0
 21 24  1  0  0  0
M  END
> <minimizedAffinity>
-6.70479

> <CNNscore>
0.3574357033

> <CNNaffinity>
6.0736598969

> <CNN_VS>
2.1709427834

> <CNNaffinity_variance>
0.2660711110

$$$$
[H]c1c([H])c(N([H])C(=O)N([H])[C@]([H])(C(=O)N([H])[C@]([H])(C(=O)N([H])[H])C([H])([H])C([H])([H])C([H])([H])[H])C([H])([H])C([H])(C([H])([H])[H])C([H])([H])[H])c([H])c([H])c1Br


 31 31  0  0  0  0  0  0  0  0999 V2000
    1.0210  -51.8443  -23.3072 C   0  0  0  0  0  0  0  0  0  0  0  0
    0.9788  -52.5471  -22.0304 N   0  0  0  0  0  0  0  0  0  0  0  0
    0.3891  -51.9185  -20.9091 C   0  0  0  0  0  0  0  0  0  0  0  0
   -0.1016  -50.7470  -21.0126 O   0  0  0  0  0  0  0  0  0  0  0  0
    0.3358  -52.5709  -19.6747 N   0  0  0  0  0  0  0  0  0  0  0  0
    1.3734  -53.4802  -21.9597 H   0  0  0  0  0  0  0  0  0  0  0  0
    0.7764  -53.5491  -19.6708 H   0  0  0  0  0  0  0  0  0  0  0  0
   -0.2198  -52.1119  -18.4597 C   0  0  0  0  0  0  0  0  0  0  0  0
    0.2163  -51.0399  -17.7306 C   0  0  0  0  0  0  0  0  0  0  0  0
   -0.3869  -50.6663  -16.5157 C   0  0  0  0  0  0  0  0  0  0  0  0
   -1.4496  -51.3658  -16.0030 C   0  0  0  0  0  0  0  0  0  0  0  0
   -2.2681  -50.8567  -14.3516 Br  0  0  0  0  0  0  0  0  0  0  0  0
   -1.8981  -52.4429  -16.7233 C   0  0  0  0  0  0  0  0  0  0  0  0
   -1.3096  -52.8085  -17.9094 C   0  0  0  0  0  0  0  0  0  0  0  0
    0.4131  -52.4457  -25.6641 N   0  0  0  0  0  0  0  0  0  0  0  0
    0.2419  -52.6434  -24.2531 C   0  0  0  0  0  0  0  0  0  0  0  0
   -0.5967  -53.5086  -23.8345 O   0  0  0  0  0  0  0  0  0  0  0  0
    1.1119  -51.7408  -25.9689 H   0  0  0  0  0  0  0  0  0  0  0  0
   -0.3598  -53.2005  -26.6252 C   0  0  0  0  0  0  0  0  0  0  0  0
    0.3073  -54.4998  -26.8824 C   0  0  0  0  0  0  0  0  0  0  0  0
   -0.0825  -55.6471  -26.1101 N   0  0  0  0  0  0  0  0  0  0  0  0
    1.1934  -54.6710  -27.7312 O   0  0  0  0  0  0  0  0  0  0  0  0
   -0.4639  -55.4769  -25.1648 H   0  0  0  0  0  0  0  0  0  0  0  0
    0.0107  -56.6226  -26.4782 H   0  0  0  0  0  0  0  0  0  0  0  0
   -0.4712  -52.4495  -27.9177 C   0  0  0  0  0  0  0  0  0  0  0  0
   -2.9972  -52.5284  -28.1617 C   0  0  0  0  0  0  0  0  0  0  0  0
   -1.6520  -52.6727  -28.7636 C   0  0  0  0  0  0  0  0  0  0  0  0
    2.3929  -51.4511  -23.6674 C   0  0  0  0  0  0  0  0  0  0  0  0
    3.4291  -52.4529  -23.9215 C   0  0  0  0  0  0  0  0  0  0  0  0
    4.7205  -52.0131  -23.1646 C   0  0  0  0  0  0  0  0  0  0  0  0
    3.8983  -52.5855  -25.3435 C   0  0  0  0  0  0  0  0  0  0  0  0
 26 27  1  0  0  0
 27 25  1  0  0  0
 25 19  1  0  0  0
 19 15  1  0  0  0
 15 16  1  0  0  0
 16 17  2  0  0  0
 16  1  1  0  0  0
  1 28  1  0  0  0
 28 29  1  0  0  0
 29 30  1  0  0  0
 29 31  1  0  0  0
  1  2  1  0  0  0
  2  3  1  0  0  0
  3  4  2  0  0  0
  3  5  1  0  0  0
  5  8  1  0  0  0
  8  9  2  0  0  0
  9 10  1  0  0  0
 10 11  2  0  0  0
 11 12  1  0  0  0
 11 13  1  0  0  0
 13 14  2  0  0  0
 19 20  1  0  0  0
 20 21  1  0  0  0
 20 22  2  0  0  0
 14  8  1  0  0  0
 15 18  1  0  0  0
  2  6  1  0  0  0
  5  7  1  0  0  0
 21 23  1  0  0  0
 21 24  1  0  0  0
M  END
> <minimizedAffinity>
-7.11743

> <CNNscore>
0.3322443962

> <CNNaffinity>
6.2656903267

> <CNN_VS>
2.0817406178

> <CNNaffinity_variance>
0.1288765222

$$$$
[H]c1c([H])c(N([H])C(=O)N([H])[C@]([H])(C(=O)N([H])[C@]([H])(C(=O)N([H])[H])C([H])([H])C([H])([H])C([H])([H])[H])C([H])([H])C([H])(C([H])([H])[H])C([H])([H])[H])c([H])c([H])c1Br


 31 31  0  0  0  0  0  0  0  0999 V2000
    0.7943  -53.0518  -24.4123 C   0  0  0  0  0  0  0  0  0  0  0  0
    0.5459  -52.0049  -23.4283 N   0  0  0  0  0  0  0  0  0  0  0  0
    0.4139  -52.3499  -22.0632 C   0  0  0  0  0  0  0  0  0  0  0  0
    0.5109  -53.5661  -21.6948 O   0  0  0  0  0  0  0  0  0  0  0  0
    0.1761  -51.3654  -21.1008 N   0  0  0  0  0  0  0  0  0  0  0  0
    0.4701  -51.0392  -23.7336 H   0  0  0  0  0  0  0  0  0  0  0  0
    0.1012  -50.3700  -21.4939 H   0  0  0  0  0  0  0  0  0  0  0  0
    0.0310  -51.5168  -19.7038 C   0  0  0  0  0  0  0  0  0  0  0  0
   -0.6832  -52.4971  -19.0714 C   0  0  0  0  0  0  0  0  0  0  0  0
   -0.7909  -52.5585  -17.6700 C   0  0  0  0  0  0  0  0  0  0  0  0
   -0.1787  -51.6301  -16.8669 C   0  0  0  0  0  0  0  0  0  0  0  0
   -0.3263  -51.7148  -14.9624 Br  0  0  0  0  0  0  0  0  0  0  0  0
    0.5413  -50.6415  -17.4869 C   0  0  0  0  0  0  0  0  0  0  0  0
    0.6467  -50.5807  -18.8550 C   0  0  0  0  0  0  0  0  0  0  0  0
    2.9500  -51.7715  -24.3949 N   0  0  0  0  0  0  0  0  0  0  0  0
    2.1379  -52.8203  -24.9427 C   0  0  0  0  0  0  0  0  0  0  0  0
    2.5912  -53.5366  -25.8958 O   0  0  0  0  0  0  0  0  0  0  0  0
    2.5529  -51.2155  -23.6131 H   0  0  0  0  0  0  0  0  0  0  0  0
    4.2720  -51.4997  -24.9136 C   0  0  0  0  0  0  0  0  0  0  0  0
    5.2878  -52.0793  -24.0016 C   0  0  0  0  0  0  0  0  0  0  0  0
    6.6502  -51.6345  -24.1048 N   0  0  0  0  0  0  0  0  0  0  0  0
    5.0422  -52.9357  -23.1407 O   0  0  0  0  0  0  0  0  0  0  0  0
    6.9677  -51.2835  -25.0236 H   0  0  0  0  0  0  0  0  0  0  0  0
    7.3063  -51.6593  -23.2894 H   0  0  0  0  0  0  0  0  0  0  0  0
    4.5030  -50.0224  -25.0188 C   0  0  0  0  0  0  0  0  0  0  0  0
    3.8004  -48.3626  -23.2305 C   0  0  0  0  0  0  0  0  0  0  0  0
    3.4900  -49.1093  -24.4710 C   0  0  0  0  0  0  0  0  0  0  0  0
   -0.3288  -53.1923  -25.3533 C   0  0  0  0  0  0  0  0  0  0  0  0
   -0.6112  -52.1670  -26.3588 C   0  0  0  0  0  0  0  0  0  0  0  0
   -2.1349  -51.8377  -26.2962 C   0  0  0  0  0  0  0  0  0  0  0  0
   -0.4087  -52.5631  -27.7946 C   0  0  0  0  0  0  0  0  0  0  0  0
 26 27  1  0  0  0
 27 25  1  0  0  0
 25 19  1  0  0  0
 19 15  1  0  0  0
 15 16  1  0  0  0
 16 17  2  0  0  0
 16  1  1  0  0  0
  1 28  1  0  0  0
 28 29  1  0  0  0
 29 30  1  0  0  0
 29 31  1  0  0  0
  1  2  1  0  0  0
  2  3  1  0  0  0
  3  4  2  0  0  0
  3  5  1  0  0  0
  5  8  1  0  0  0
  8  9  2  0  0  0
  9 10  1  0  0  0
 10 11  2  0  0  0
 11 12  1  0  0  0
 11 13  1  0  0  0
 13 14  2  0  0  0
 19 20  1  0  0  0
 20 21  1  0  0  0
 20 22  2  0  0  0
 14  8  1  0  0  0
 15 18  1  0  0  0
  2  6  1  0  0  0
  5  7  1  0  0  0
 21 23  1  0  0  0
 21 24  1  0  0  0
M  END
> <minimizedAffinity>
-6.31793

> <CNNscore>
0.3156445622

> <CNNaffinity>
5.9822769165

> <CNN_VS>
1.8882731199

> <CNNaffinity_variance>
0.1879405677

$$$$
[H]c1c([H])c(N([H])C(=O)N([H])[C@]([H])(C(=O)N([H])[C@]([H])(C(=O)N([H])[H])C([H])([H])C([H])([H])C([H])([H])[H])C([H])([H])C([H])(C([H])([H])[H])C([H])([H])[H])c([H])c([H])c1Br


 31 31  0  0  0  0  0  0  0  0999 V2000
    2.1989  -51.0421  -23.8871 C   0  0  0  0  0  0  0  0  0  0  0  0
    2.4101  -51.6255  -22.5677 N   0  0  0  0  0  0  0  0  0  0  0  0
    1.4333  -51.4429  -21.5614 C   0  0  0  0  0  0  0  0  0  0  0  0
    0.3764  -50.7736  -21.8046 O   0  0  0  0  0  0  0  0  0  0  0  0
    1.6119  -51.9922  -20.2891 N   0  0  0  0  0  0  0  0  0  0  0  0
    3.2564  -52.1566  -22.3852 H   0  0  0  0  0  0  0  0  0  0  0  0
    2.5295  -52.5340  -20.1649 H   0  0  0  0  0  0  0  0  0  0  0  0
    0.7483  -51.9271  -19.1730 C   0  0  0  0  0  0  0  0  0  0  0  0
   -0.2622  -52.8033  -18.8863 C   0  0  0  0  0  0  0  0  0  0  0  0
   -1.0894  -52.6482  -17.7590 C   0  0  0  0  0  0  0  0  0  0  0  0
   -0.9183  -51.6025  -16.8880 C   0  0  0  0  0  0  0  0  0  0  0  0
   -2.0437  -51.3931  -15.3563 Br  0  0  0  0  0  0  0  0  0  0  0  0
    0.0912  -50.7161  -17.1624 C   0  0  0  0  0  0  0  0  0  0  0  0
    0.8992  -50.8665  -18.2629 C   0  0  0  0  0  0  0  0  0  0  0  0
    0.0289  -51.8673  -24.8339 N   0  0  0  0  0  0  0  0  0  0  0  0
    1.4454  -52.0249  -24.6658 C   0  0  0  0  0  0  0  0  0  0  0  0
    2.0351  -53.0275  -25.1894 O   0  0  0  0  0  0  0  0  0  0  0  0
   -0.4159  -51.0339  -24.4030 H   0  0  0  0  0  0  0  0  0  0  0  0
   -0.7492  -52.8342  -25.5758 C   0  0  0  0  0  0  0  0  0  0  0  0
   -0.6548  -54.1567  -24.9113 C   0  0  0  0  0  0  0  0  0  0  0  0
   -0.2470  -55.2967  -25.6852 N   0  0  0  0  0  0  0  0  0  0  0  0
   -0.9071  -54.3537  -23.7145 O   0  0  0  0  0  0  0  0  0  0  0  0
   -0.4414  -55.2769  -26.7000 H   0  0  0  0  0  0  0  0  0  0  0  0
    0.2293  -56.1216  -25.2509 H   0  0  0  0  0  0  0  0  0  0  0  0
   -0.2351  -52.9595  -26.9782 C   0  0  0  0  0  0  0  0  0  0  0  0
   -0.6251  -52.7251  -29.4761 C   0  0  0  0  0  0  0  0  0  0  0  0
   -1.1523  -52.6843  -28.0930 C   0  0  0  0  0  0  0  0  0  0  0  0
    3.4453  -50.4940  -24.4462 C   0  0  0  0  0  0  0  0  0  0  0  0
    3.5720  -49.0729  -24.7725 C   0  0  0  0  0  0  0  0  0  0  0  0
    4.8625  -48.8886  -25.6296 C   0  0  0  0  0  0  0  0  0  0  0  0
    3.7959  -48.1377  -23.6172 C   0  0  0  0  0  0  0  0  0  0  0  0
 26 27  1  0  0  0
 27 25  1  0  0  0
 25 19  1  0  0  0
 19 15  1  0  0  0
 15 16  1  0  0  0
 16 17  2  0  0  0
 16  1  1  0  0  0
  1 28  1  0  0  0
 28 29  1  0  0  0
 29 30  1  0  0  0
 29 31  1  0  0  0
  1  2  1  0  0  0
  2  3  1  0  0  0
  3  4  2  0  0  0
  3  5  1  0  0  0
  5  8  1  0  0  0
  8  9  2  0  0  0
  9 10  1  0  0  0
 10 11  2  0  0  0
 11 12  1  0  0  0
 11 13  1  0  0  0
 13 14  2  0  0  0
 19 20  1  0  0  0
 20 21  1  0  0  0
 20 22  2  0  0  0
 14  8  1  0  0  0
 15 18  1  0  0  0
  2  6  1  0  0  0
  5  7  1  0  0  0
 21 23  1  0  0  0
 21 24  1  0  0  0
M  END
> <minimizedAffinity>
-6.31685

> <CNNscore>
0.3155761063

> <CNNaffinity>
6.2876114845

> <CNN_VS>
1.9842199087

> <CNNaffinity_variance>
0.2925445437

$$$$
[H]c1c([H])c(N([H])C(=O)N([H])[C@]([H])(C(=O)N([H])[C@]([H])(C(=O)N([H])[H])C([H])([H])C([H])([H])C([H])([H])[H])C([H])([H])C([H])(C([H])([H])[H])C([H])([H])[H])c([H])c([H])c1Br


 31 31  0  0  0  0  0  0  0  0999 V2000
    1.5957  -52.3822  -25.1007 C   0  0  0  0  0  0  0  0  0  0  0  0
    2.9248  -51.8624  -25.3990 N   0  0  0  0  0  0  0  0  0  0  0  0
    3.0655  -50.5306  -25.8537 C   0  0  0  0  0  0  0  0  0  0  0  0
    2.0392  -49.7898  -26.0021 O   0  0  0  0  0  0  0  0  0  0  0  0
    4.3281  -50.0087  -26.1460 N   0  0  0  0  0  0  0  0  0  0  0  0
    3.7354  -52.4621  -25.2773 H   0  0  0  0  0  0  0  0  0  0  0  0
    5.1372  -50.6983  -26.0014 H   0  0  0  0  0  0  0  0  0  0  0  0
    4.6623  -48.7111  -26.5934 C   0  0  0  0  0  0  0  0  0  0  0  0
    5.0656  -47.6682  -25.8055 C   0  0  0  0  0  0  0  0  0  0  0  0
    5.3588  -46.3990  -26.3369 C   0  0  0  0  0  0  0  0  0  0  0  0
    5.2534  -46.1476  -27.6813 C   0  0  0  0  0  0  0  0  0  0  0  0
    5.6521  -44.4219  -28.4018 Br  0  0  0  0  0  0  0  0  0  0  0  0
    4.8505  -47.1839  -28.4837 C   0  0  0  0  0  0  0  0  0  0  0  0
    4.5638  -48.4233  -27.9657 C   0  0  0  0  0  0  0  0  0  0  0  0
    0.2293  -52.7577  -23.0322 N   0  0  0  0  0  0  0  0  0  0  0  0
    1.4949  -52.4680  -23.6437 C   0  0  0  0  0  0  0  0  0  0  0  0
    2.5209  -52.2776  -22.9103 O   0  0  0  0  0  0  0  0  0  0  0  0
   -0.5820  -52.9175  -23.6603 H   0  0  0  0  0  0  0  0  0  0  0  0
    0.0900  -52.8240  -21.5946 C   0  0  0  0  0  0  0  0  0  0  0  0
   -0.8067  -53.9501  -21.2379 C   0  0  0  0  0  0  0  0  0  0  0  0
   -1.4658  -53.9372  -19.9611 N   0  0  0  0  0  0  0  0  0  0  0  0
   -1.0330  -54.9198  -21.9751 O   0  0  0  0  0  0  0  0  0  0  0  0
   -1.0041  -53.4232  -19.1926 H   0  0  0  0  0  0  0  0  0  0  0  0
   -2.3782  -54.4251  -19.8018 H   0  0  0  0  0  0  0  0  0  0  0  0
   -0.4967  -51.5511  -21.0631 C   0  0  0  0  0  0  0  0  0  0  0  0
    1.3930  -50.4269  -19.7936 C   0  0  0  0  0  0  0  0  0  0  0  0
    0.3859  -50.3907  -20.8786 C   0  0  0  0  0  0  0  0  0  0  0  0
    1.2825  -53.5725  -25.9079 C   0  0  0  0  0  0  0  0  0  0  0  0
    0.1272  -53.5998  -26.8059 C   0  0  0  0  0  0  0  0  0  0  0  0
    0.6574  -53.6912  -28.2704 C   0  0  0  0  0  0  0  0  0  0  0  0
   -0.7299  -52.3652  -26.8323 C   0  0  0  0  0  0  0  0  0  0  0  0
 26 27  1  0  0  0
 27 25  1  0  0  0
 25 19  1  0  0  0
 19 15  1  0  0  0
 15 16  1  0  0  0
 16 17  2  0  0  0
 16  1  1  0  0  0
  1 28  1  0  0  0
 28 29  1  0  0  0
 29 30  1  0  0  0
 29 31  1  0  0  0
  1  2  1  0  0  0
  2  3  1  0  0  0
  3  4  2  0  0  0
  3  5  1  0  0  0
  5  8  1  0  0  0
  8  9  2  0  0  0
  9 10  1  0  0  0
 10 11  2  0  0  0
 11 12  1  0  0  0
 11 13  1  0  0  0
 13 14  2  0  0  0
 19 20  1  0  0  0
 20 21  1  0  0  0
 20 22  2  0  0  0
 14  8  1  0  0  0
 15 18  1  0  0  0
  2  6  1  0  0  0
  5  7  1  0  0  0
 21 23  1  0  0  0
 21 24  1  0  0  0
M  END
> <minimizedAffinity>
-5.53539

> <CNNscore>
0.3032864630

> <CNNaffinity>
5.9577035904

> <CNN_VS>
1.8068908453

> <CNNaffinity_variance>
0.3153358102

$$$$
[H]c1c([H])c(N([H])C(=O)N([H])[C@]([H])(C(=O)N([H])[C@]([H])(C(=O)N([H])[H])C([H])([H])C([H])([H])C([H])([H])[H])C([H])([H])C([H])(C([H])([H])[H])C([H])([H])[H])c([H])c([H])c1Br


 31 31  0  0  0  0  0  0  0  0999 V2000
    1.1959  -52.7472  -22.2003 C   0  0  0  0  0  0  0  0  0  0  0  0
    2.3300  -52.2095  -22.9423 N   0  0  0  0  0  0  0  0  0  0  0  0
    2.2798  -50.8807  -23.4240 C   0  0  0  0  0  0  0  0  0  0  0  0
    1.2517  -50.1581  -23.2120 O   0  0  0  0  0  0  0  0  0  0  0  0
    3.3536  -50.3419  -24.1372 N   0  0  0  0  0  0  0  0  0  0  0  0
    3.1439  -52.7947  -23.1054 H   0  0  0  0  0  0  0  0  0  0  0  0
    4.1756  -51.0168  -24.2780 H   0  0  0  0  0  0  0  0  0  0  0  0
    3.4881  -49.0442  -24.6789 C   0  0  0  0  0  0  0  0  0  0  0  0
    3.8790  -47.9249  -23.9966 C   0  0  0  0  0  0  0  0  0  0  0  0
    3.9652  -46.6640  -24.6146 C   0  0  0  0  0  0  0  0  0  0  0  0
    3.6590  -46.4984  -25.9414 C   0  0  0  0  0  0  0  0  0  0  0  0
    3.7764  -44.7838  -26.7798 Br  0  0  0  0  0  0  0  0  0  0  0  0
    3.2658  -47.6118  -26.6385 C   0  0  0  0  0  0  0  0  0  0  0  0
    3.1812  -48.8432  -26.0358 C   0  0  0  0  0  0  0  0  0  0  0  0
    0.4649  -52.9786  -24.5875 N   0  0  0  0  0  0  0  0  0  0  0  0
    0.2301  -53.2196  -23.1924 C   0  0  0  0  0  0  0  0  0  0  0  0
   -0.8254  -53.8359  -22.8276 O   0  0  0  0  0  0  0  0  0  0  0  0
    1.3394  -52.4835  -24.8486 H   0  0  0  0  0  0  0  0  0  0  0  0
   -0.4821  -53.4095  -25.5915 C   0  0  0  0  0  0  0  0  0  0  0  0
    0.1272  -54.4811  -26.4159 C   0  0  0  0  0  0  0  0  0  0  0  0
    0.9676  -54.1151  -27.5224 N   0  0  0  0  0  0  0  0  0  0  0  0
   -0.0390  -55.6925  -26.2159 O   0  0  0  0  0  0  0  0  0  0  0  0
    0.7938  -53.1995  -27.9692 H   0  0  0  0  0  0  0  0  0  0  0  0
    1.7297  -54.7416  -27.8726 H   0  0  0  0  0  0  0  0  0  0  0  0
   -0.8586  -52.2664  -26.4853 C   0  0  0  0  0  0  0  0  0  0  0  0
   -2.7981  -52.4892  -28.1086 C   0  0  0  0  0  0  0  0  0  0  0  0
   -2.2792  -52.0500  -26.7931 C   0  0  0  0  0  0  0  0  0  0  0  0
    0.7432  -51.8203  -21.1503 C   0  0  0  0  0  0  0  0  0  0  0  0
    0.8300  -52.1759  -19.7332 C   0  0  0  0  0  0  0  0  0  0  0  0
   -0.3906  -53.0846  -19.3889 C   0  0  0  0  0  0  0  0  0  0  0  0
    0.6996  -51.0464  -18.7500 C   0  0  0  0  0  0  0  0  0  0  0  0
 26 27  1  0  0  0
 27 25  1  0  0  0
 25 19  1  0  0  0
 19 15  1  0  0  0
 15 16  1  0  0  0
 16 17  2  0  0  0
 16  1  1  0  0  0
  1 28  1  0  0  0
 28 29  1  0  0  0
 29 30  1  0  0  0
 29 31  1  0  0  0
  1  2  1  0  0  0
  2  3  1  0  0  0
  3  4  2  0  0  0
  3  5  1  0  0  0
  5  8  1  0  0  0
  8  9  2  0  0  0
  9 10  1  0  0  0
 10 11  2  0  0  0
 11 12  1  0  0  0
 11 13  1  0  0  0
 13 14  2  0  0  0
 19 20  1  0  0  0
 20 21  1  0  0  0
 20 22  2  0  0  0
 14  8  1  0  0  0
 15 18  1  0  0  0
  2  6  1  0  0  0
  5  7  1  0  0  0
 21 23  1  0  0  0
 21 24  1  0  0  0
M  END
> <minimizedAffinity>
-6.34212

> <CNNscore>
0.2888969481

> <CNNaffinity>
6.1727805138

> <CNN_VS>
1.7832974195

> <CNNaffinity_variance>
0.2371939868

$$$$
[H]c1c([H])c(N([H])C(=O)N([H])[C@]([H])(C(=O)N([H])[C@]([H])(C(=O)N([H])[H])C([H])([H])C([H])([H])C([H])([H])[H])C([H])([H])C([H])(C([H])([H])[H])C([H])([H])[H])c([H])c([H])c1Br


 31 31  0  0  0  0  0  0  0  0999 V2000
    0.9671  -52.1229  -23.0538 C   0  0  0  0  0  0  0  0  0  0  0  0
    0.6263  -50.9098  -22.3204 N   0  0  0  0  0  0  0  0  0  0  0  0
    1.5565  -50.3654  -21.4047 C   0  0  0  0  0  0  0  0  0  0  0  0
    2.6841  -50.9302  -21.2210 O   0  0  0  0  0  0  0  0  0  0  0  0
    1.2541  -49.2036  -20.6900 N   0  0  0  0  0  0  0  0  0  0  0  0
   -0.2754  -50.4686  -22.4747 H   0  0  0  0  0  0  0  0  0  0  0  0
    0.2838  -48.7955  -20.8973 H   0  0  0  0  0  0  0  0  0  0  0  0
    2.0543  -48.5133  -19.7526 C   0  0  0  0  0  0  0  0  0  0  0  0
    2.8660  -47.4454  -20.0206 C   0  0  0  0  0  0  0  0  0  0  0  0
    3.6469  -46.8308  -19.0247 C   0  0  0  0  0  0  0  0  0  0  0  0
    3.6292  -47.2781  -17.7282 C   0  0  0  0  0  0  0  0  0  0  0  0
    4.6914  -46.4417  -16.3759 Br  0  0  0  0  0  0  0  0  0  0  0  0
    2.8198  -48.3479  -17.4444 C   0  0  0  0  0  0  0  0  0  0  0  0
    2.0572  -48.9487  -18.4161 C   0  0  0  0  0  0  0  0  0  0  0  0
   -0.5260  -52.4089  -25.0476 N   0  0  0  0  0  0  0  0  0  0  0  0
    0.6645  -51.8626  -24.4612 C   0  0  0  0  0  0  0  0  0  0  0  0
    1.4552  -51.1618  -25.1758 O   0  0  0  0  0  0  0  0  0  0  0  0
   -1.1517  -52.9654  -24.4337 H   0  0  0  0  0  0  0  0  0  0  0  0
   -0.8413  -52.1922  -26.4419 C   0  0  0  0  0  0  0  0  0  0  0  0
   -2.2901  -51.9079  -26.5810 C   0  0  0  0  0  0  0  0  0  0  0  0
   -3.0611  -52.6688  -27.5251 N   0  0  0  0  0  0  0  0  0  0  0  0
   -2.8956  -51.0451  -25.9298 O   0  0  0  0  0  0  0  0  0  0  0  0
   -2.5628  -53.0574  -28.3428 H   0  0  0  0  0  0  0  0  0  0  0  0
   -4.0880  -52.8310  -27.4016 H   0  0  0  0  0  0  0  0  0  0  0  0
   -0.5068  -53.4079  -27.2526 C   0  0  0  0  0  0  0  0  0  0  0  0
   -0.3012  -52.7545  -29.6975 C   0  0  0  0  0  0  0  0  0  0  0  0
    0.3282  -53.2485  -28.4515 C   0  0  0  0  0  0  0  0  0  0  0  0
    0.4036  -53.3227  -22.4139 C   0  0  0  0  0  0  0  0  0  0  0  0
   -0.4689  -53.2213  -21.2432 C   0  0  0  0  0  0  0  0  0  0  0  0
    0.3431  -53.6879  -19.9953 C   0  0  0  0  0  0  0  0  0  0  0  0
   -1.6702  -54.1246  -21.2229 C   0  0  0  0  0  0  0  0  0  0  0  0
 26 27  1  0  0  0
 27 25  1  0  0  0
 25 19  1  0  0  0
 19 15  1  0  0  0
 15 16  1  0  0  0
 16 17  2  0  0  0
 16  1  1  0  0  0
  1 28  1  0  0  0
 28 29  1  0  0  0
 29 30  1  0  0  0
 29 31  1  0  0  0
  1  2  1  0  0  0
  2  3  1  0  0  0
  3  4  2  0  0  0
  3  5  1  0  0  0
  5  8  1  0  0  0
  8  9  2  0  0  0
  9 10  1  0  0  0
 10 11  2  0  0  0
 11 12  1  0  0  0
 11 13  1  0  0  0
 13 14  2  0  0  0
 19 20  1  0  0  0
 20 21  1  0  0  0
 20 22  2  0  0  0
 14  8  1  0  0  0
 15 18  1  0  0  0
  2  6  1  0  0  0
  5  7  1  0  0  0
 21 23  1  0  0  0
 21 24  1  0  0  0
M  END
> <minimizedAffinity>
-6.39460

> <CNNscore>
0.2696772516

> <CNNaffinity>
5.7328186035

> <CNN_VS>
1.5460107327

> <CNNaffinity_variance>
0.1294698566

$$$$
[H]OC(C([H])([H])[H])(C([H])([H])[H])C([H])([H])C(=O)N([H])C([H])([H])C([H])([H])c1c([H])c([H])c2nc([H])nc(N([H])c3c([H])c([H])c(Oc4c([H])c([H])c([H])c(C(F)(F)F)c4[H])c(Cl)c3[H])c2c1[H]


 42 45  0  0  0  0  0  0  0  0999 V2000
    0.9574  -49.9732  -16.2820 C   0  0  0  0  0  0  0  0  0  0  0  0
    0.1735  -49.2248  -15.4502 C   0  0  0  0  0  0  0  0  0  0  0  0
   -1.1197  -49.5730  -15.2109 C   0  0  0  0  0  0  0  0  0  0  0  0
   -1.6872  -50.6926  -15.8041 C   0  0  0  0  0  0  0  0  0  0  0  0
   -2.9790  -50.9645  -15.5297 N   0  0  0  0  0  0  0  0  0  0  0  0
   -3.5484  -52.0306  -16.1097 C   0  0  0  0  0  0  0  0  0  0  0  0
   -2.7896  -52.7519  -16.9257 N   0  0  0  0  0  0  0  0  0  0  0  0
   -1.5204  -52.5536  -17.2452 C   0  0  0  0  0  0  0  0  0  0  0  0
   -0.9021  -51.4484  -16.6478 C   0  0  0  0  0  0  0  0  0  0  0  0
    0.3903  -51.1153  -16.8918 C   0  0  0  0  0  0  0  0  0  0  0  0
   -0.8269  -53.3433  -18.1799 N   0  0  0  0  0  0  0  0  0  0  0  0
   -0.3360  -54.2356  -17.9155 H   0  0  0  0  0  0  0  0  0  0  0  0
   -0.7244  -52.9977  -19.5532 C   0  0  0  0  0  0  0  0  0  0  0  0
   -0.2697  -51.8072  -20.0286 C   0  0  0  0  0  0  0  0  0  0  0  0
   -0.0884  -51.5685  -21.3940 C   0  0  0  0  0  0  0  0  0  0  0  0
   -0.3818  -52.5780  -22.3279 C   0  0  0  0  0  0  0  0  0  0  0  0
   -0.8477  -53.7876  -21.8665 C   0  0  0  0  0  0  0  0  0  0  0  0
   -1.2623  -55.1014  -22.9845 Cl  0  0  0  0  0  0  0  0  0  0  0  0
   -1.0054  -53.9685  -20.5110 C   0  0  0  0  0  0  0  0  0  0  0  0
   -0.1780  -52.2869  -23.6229 O   0  0  0  0  0  0  0  0  0  0  0  0
    0.7748  -52.4913  -24.5477 C   0  0  0  0  0  0  0  0  0  0  0  0
    2.1114  -52.2402  -24.1955 C   0  0  0  0  0  0  0  0  0  0  0  0
    3.0975  -52.4434  -25.1188 C   0  0  0  0  0  0  0  0  0  0  0  0
    2.7710  -52.8899  -26.3806 C   0  0  0  0  0  0  0  0  0  0  0  0
    1.4719  -53.1431  -26.7582 C   0  0  0  0  0  0  0  0  0  0  0  0
    0.4775  -52.9439  -25.8392 C   0  0  0  0  0  0  0  0  0  0  0  0
    1.2043  -53.6003  -28.1478 C   0  0  0  0  0  0  0  0  0  0  0  0
    0.2802  -54.6628  -28.1247 F   0  0  0  0  0  0  0  0  0  0  0  0
    0.5809  -52.5667  -28.8159 F   0  0  0  0  0  0  0  0  0  0  0  0
    2.3486  -53.9428  -28.8102 F   0  0  0  0  0  0  0  0  0  0  0  0
    2.3187  -49.6102  -16.6011 C   0  0  0  0  0  0  0  0  0  0  0  0
    2.5664  -48.9955  -17.9638 C   0  0  0  0  0  0  0  0  0  0  0  0
    3.2440  -50.8362  -19.8920 C   0  0  0  0  0  0  0  0  0  0  0  0
    3.3591  -52.0693  -19.7484 O   0  0  0  0  0  0  0  0  0  0  0  0
    2.9055  -49.9153  -18.9297 N   0  0  0  0  0  0  0  0  0  0  0  0
    2.6591  -50.9335  -18.0511 H   0  0  0  0  0  0  0  0  0  0  0  0
    3.5180  -50.3499  -21.2962 C   0  0  0  0  0  0  0  0  0  0  0  0
    5.8898  -49.9327  -20.7929 C   0  0  0  0  0  0  0  0  0  0  0  0
    4.9025  -50.4940  -21.7679 C   0  0  0  0  0  0  0  0  0  0  0  0
    5.1256  -49.9992  -23.1874 C   0  0  0  0  0  0  0  0  0  0  0  0
    5.1491  -51.9127  -21.8078 O   0  0  0  0  0  0  0  0  0  0  0  0
    4.3057  -52.3160  -22.1487 H   0  0  0  0  0  0  0  0  0  0  0  0
 38 39  1  0  0  0
 39 40  1  0  0  0
 39 41  1  0  0  0
 39 37  1  0  0  0
 37 33  1  0  0  0
 33 34  2  0  0  0
 33 35  1  0  0  0
 35 32  1  0  0  0
 32 31  1  0  0  0
 31  1  1  0  0  0
  1  2  2  0  0  0
  2  3  1  0  0  0
  3  4  2  0  0  0
  4  5  1  0  0  0
  5  6  2  0  0  0
  6  7  1  0  0  0
  7  8  2  0  0  0
  8 11  1  0  0  0
 11 13  1  0  0  0
 13 14  2  0  0  0
 14 15  1  0  0  0
 15 16  2  0  0  0
 16 20  1  0  0  0
 20 21  1  0  0  0
 21 22  2  0  0  0
 22 23  1  0  0  0
 23 24  2  0  0  0
 24 25  1  0  0  0
 25 27  1  0  0  0
 27 28  1  0  0  0
 27 29  1  0  0  0
 27 30  1  0  0  0
 25 26  2  0  0  0
 16 17  1  0  0  0
 17 18  1  0  0  0
 17 19  2  0  0  0
  8  9  1  0  0  0
  9 10  2  0  0  0
 10  1  1  0  0  0
  9  4  1  0  0  0
 19 13  1  0  0  0
 26 21  1  0  0  0
 41 42  1  0  0  0
 35 36  1  0  0  0
 11 12  1  0  0  0
M  END
> <minimizedAffinity>
-8.76571

> <CNNscore>
0.3662722707

> <CNNaffinity>
7.3200774193

> <CNN_VS>
2.6811413765

> <CNNaffinity_variance>
0.3046161532

$$$$
[H]OC(C([H])([H])[H])(C([H])([H])[H])C([H])([H])C(=O)N([H])C([H])([H])C([H])([H])c1c([H])c([H])c2nc([H])nc(N([H])c3c([H])c([H])c(Oc4c([H])c([H])c([H])c(C(F)(F)F)c4[H])c(Cl)c3[H])c2c1[H]


 42 45  0  0  0  0  0  0  0  0999 V2000
    1.0034  -51.4158  -25.2949 C   0  0  0  0  0  0  0  0  0  0  0  0
    0.1734  -52.0552  -26.1717 C   0  0  0  0  0  0  0  0  0  0  0  0
   -0.5967  -53.1008  -25.7660 C   0  0  0  0  0  0  0  0  0  0  0  0
   -0.5633  -53.5558  -24.4549 C   0  0  0  0  0  0  0  0  0  0  0  0
   -1.3443  -54.6064  -24.1324 N   0  0  0  0  0  0  0  0  0  0  0  0
   -1.3094  -55.0712  -22.8755 C   0  0  0  0  0  0  0  0  0  0  0  0
   -0.4955  -54.4561  -22.0262 N   0  0  0  0  0  0  0  0  0  0  0  0
    0.2985  -53.4236  -22.2622 C   0  0  0  0  0  0  0  0  0  0  0  0
    0.2758  -52.9171  -23.5674 C   0  0  0  0  0  0  0  0  0  0  0  0
    1.0459  -51.8703  -23.9572 C   0  0  0  0  0  0  0  0  0  0  0  0
    1.1773  -52.8900  -21.3024 N   0  0  0  0  0  0  0  0  0  0  0  0
    2.2218  -52.8877  -21.4288 H   0  0  0  0  0  0  0  0  0  0  0  0
    0.7290  -52.3194  -20.0820 C   0  0  0  0  0  0  0  0  0  0  0  0
   -0.2250  -52.8532  -19.2726 C   0  0  0  0  0  0  0  0  0  0  0  0
   -0.5435  -52.3005  -18.0287 C   0  0  0  0  0  0  0  0  0  0  0  0
    0.1303  -51.1515  -17.5780 C   0  0  0  0  0  0  0  0  0  0  0  0
    1.0951  -50.5941  -18.3851 C   0  0  0  0  0  0  0  0  0  0  0  0
    1.9714  -49.1308  -17.8961 Cl  0  0  0  0  0  0  0  0  0  0  0  0
    1.3698  -51.1813  -19.5995 C   0  0  0  0  0  0  0  0  0  0  0  0
   -0.2175  -50.6762  -16.3712 O   0  0  0  0  0  0  0  0  0  0  0  0
   -1.1434  -49.8472  -15.8606 C   0  0  0  0  0  0  0  0  0  0  0  0
   -0.7745  -48.5184  -15.5930 C   0  0  0  0  0  0  0  0  0  0  0  0
   -1.6999  -47.6568  -15.0760 C   0  0  0  0  0  0  0  0  0  0  0  0
   -2.9798  -48.0997  -14.8230 C   0  0  0  0  0  0  0  0  0  0  0  0
   -3.3727  -49.3950  -15.0717 C   0  0  0  0  0  0  0  0  0  0  0  0
   -2.4527  -50.2649  -15.5913 C   0  0  0  0  0  0  0  0  0  0  0  0
   -4.7674  -49.7969  -14.7475 C   0  0  0  0  0  0  0  0  0  0  0  0
   -5.6677  -49.0490  -15.5310 F   0  0  0  0  0  0  0  0  0  0  0  0
   -4.9252  -51.1116  -15.1352 F   0  0  0  0  0  0  0  0  0  0  0  0
   -5.0437  -49.6814  -13.4149 F   0  0  0  0  0  0  0  0  0  0  0  0
    1.8734  -50.3349  -25.6968 C   0  0  0  0  0  0  0  0  0  0  0  0
    3.2737  -50.7064  -26.1408 C   0  0  0  0  0  0  0  0  0  0  0  0
    5.2313  -49.9615  -24.3580 C   0  0  0  0  0  0  0  0  0  0  0  0
    6.4121  -50.3604  -24.3263 O   0  0  0  0  0  0  0  0  0  0  0  0
    4.2521  -50.3326  -25.2481 N   0  0  0  0  0  0  0  0  0  0  0  0
    5.1791  -51.0383  -25.9637 H   0  0  0  0  0  0  0  0  0  0  0  0
    4.8882  -48.9618  -23.2781 C   0  0  0  0  0  0  0  0  0  0  0  0
    4.1272  -50.9296  -22.0126 C   0  0  0  0  0  0  0  0  0  0  0  0
    4.0097  -49.4500  -22.2057 C   0  0  0  0  0  0  0  0  0  0  0  0
    2.5691  -48.9814  -22.3265 C   0  0  0  0  0  0  0  0  0  0  0  0
    4.5124  -48.8522  -20.9953 O   0  0  0  0  0  0  0  0  0  0  0  0
    4.7686  -47.9245  -21.2477 H   0  0  0  0  0  0  0  0  0  0  0  0
 38 39  1  0  0  0
 39 40  1  0  0  0
 39 41  1  0  0  0
 39 37  1  0  0  0
 37 33  1  0  0  0
 33 34  2  0  0  0
 33 35  1  0  0  0
 35 32  1  0  0  0
 32 31  1  0  0  0
 31  1  1  0  0  0
  1  2  2  0  0  0
  2  3  1  0  0  0
  3  4  2  0  0  0
  4  5  1  0  0  0
  5  6  2  0  0  0
  6  7  1  0  0  0
  7  8  2  0  0  0
  8 11  1  0  0  0
 11 13  1  0  0  0
 13 14  2  0  0  0
 14 15  1  0  0  0
 15 16  2  0  0  0
 16 20  1  0  0  0
 20 21  1  0  0  0
 21 22  2  0  0  0
 22 23  1  0  0  0
 23 24  2  0  0  0
 24 25  1  0  0  0
 25 27  1  0  0  0
 27 28  1  0  0  0
 27 29  1  0  0  0
 27 30  1  0  0  0
 25 26  2  0  0  0
 16 17  1  0  0  0
 17 18  1  0  0  0
 17 19  2  0  0  0
  8  9  1  0  0  0
  9 10  2  0  0  0
 10  1  1  0  0  0
  9  4  1  0  0  0
 19 13  1  0  0  0
 26 21  1  0  0  0
 41 42  1  0  0  0
 35 36  1  0  0  0
 11 12  1  0  0  0
M  END
> <minimizedAffinity>
-8.21340

> <CNNscore>
0.3370175362

> <CNNaffinity>
7.2327623367

> <CNN_VS>
2.4375677109

> <CNNaffinity_variance>
0.2502014041

$$$$
[H]OC(C([H])([H])[H])(C([H])([H])[H])C([H])([H])C(=O)N([H])C([H])([H])C([H])([H])c1c([H])c([H])c2nc([H])nc(N([H])c3c([H])c([H])c(Oc4c([H])c([H])c([H])c(C(F)(F)F)c4[H])c(Cl)c3[H])c2c1[H]


 42 45  0  0  0  0  0  0  0  0999 V2000
    3.2825  -52.6650  -24.9105 C   0  0  0  0  0  0  0  0  0  0  0  0
    3.3489  -51.9426  -26.0682 C   0  0  0  0  0  0  0  0  0  0  0  0
    2.2280  -51.6878  -26.7960 C   0  0  0  0  0  0  0  0  0  0  0  0
    0.9843  -52.1543  -26.3928 C   0  0  0  0  0  0  0  0  0  0  0  0
   -0.0777  -51.8737  -27.1747 N   0  0  0  0  0  0  0  0  0  0  0  0
   -1.2832  -52.3335  -26.8105 C   0  0  0  0  0  0  0  0  0  0  0  0
   -1.3459  -53.0439  -25.6909 N   0  0  0  0  0  0  0  0  0  0  0  0
   -0.3562  -53.3610  -24.8712 C   0  0  0  0  0  0  0  0  0  0  0  0
    0.9124  -52.8876  -25.2281 C   0  0  0  0  0  0  0  0  0  0  0  0
    2.0214  -53.1453  -24.4901 C   0  0  0  0  0  0  0  0  0  0  0  0
   -0.5220  -54.1823  -23.7415 N   0  0  0  0  0  0  0  0  0  0  0  0
   -0.7682  -55.2028  -23.8133 H   0  0  0  0  0  0  0  0  0  0  0  0
   -0.3802  -53.7013  -22.4132 C   0  0  0  0  0  0  0  0  0  0  0  0
   -0.2210  -54.4822  -21.3111 C   0  0  0  0  0  0  0  0  0  0  0  0
    0.0246  -53.9448  -20.0442 C   0  0  0  0  0  0  0  0  0  0  0  0
    0.1119  -52.5512  -19.8780 C   0  0  0  0  0  0  0  0  0  0  0  0
   -0.0515  -51.7444  -20.9805 C   0  0  0  0  0  0  0  0  0  0  0  0
    0.0211  -49.9766  -20.8464 Cl  0  0  0  0  0  0  0  0  0  0  0  0
   -0.2892  -52.3276  -22.2046 C   0  0  0  0  0  0  0  0  0  0  0  0
    0.3576  -52.1005  -18.6371 O   0  0  0  0  0  0  0  0  0  0  0  0
   -0.3370  -51.5582  -17.6229 C   0  0  0  0  0  0  0  0  0  0  0  0
    0.1592  -50.3880  -17.0248 C   0  0  0  0  0  0  0  0  0  0  0  0
   -0.5315  -49.8173  -15.9935 C   0  0  0  0  0  0  0  0  0  0  0  0
   -1.7023  -50.3947  -15.5529 C   0  0  0  0  0  0  0  0  0  0  0  0
   -2.2142  -51.5417  -16.1154 C   0  0  0  0  0  0  0  0  0  0  0  0
   -1.5298  -52.1194  -17.1502 C   0  0  0  0  0  0  0  0  0  0  0  0
   -3.4718  -52.1124  -15.5636 C   0  0  0  0  0  0  0  0  0  0  0  0
   -4.5400  -51.2294  -15.8145 F   0  0  0  0  0  0  0  0  0  0  0  0
   -3.7544  -53.2635  -16.2696 F   0  0  0  0  0  0  0  0  0  0  0  0
   -3.3666  -52.4104  -14.2348 F   0  0  0  0  0  0  0  0  0  0  0  0
    4.4549  -52.9996  -24.1357 C   0  0  0  0  0  0  0  0  0  0  0  0
    5.6673  -52.1056  -24.2996 C   0  0  0  0  0  0  0  0  0  0  0  0
    6.0728  -50.3988  -22.1812 C   0  0  0  0  0  0  0  0  0  0  0  0
    6.9880  -50.4516  -21.3364 O   0  0  0  0  0  0  0  0  0  0  0  0
    5.8688  -51.2507  -23.2402 N   0  0  0  0  0  0  0  0  0  0  0  0
    7.0579  -51.8670  -22.9651 H   0  0  0  0  0  0  0  0  0  0  0  0
    5.1067  -49.2554  -21.9744 C   0  0  0  0  0  0  0  0  0  0  0  0
    3.5895  -50.9277  -20.9975 C   0  0  0  0  0  0  0  0  0  0  0  0
    3.7059  -49.6320  -21.7377 C   0  0  0  0  0  0  0  0  0  0  0  0
    2.8344  -49.5806  -22.9816 C   0  0  0  0  0  0  0  0  0  0  0  0
    3.1810  -48.6231  -20.8536 O   0  0  0  0  0  0  0  0  0  0  0  0
    3.5742  -47.7659  -21.1710 H   0  0  0  0  0  0  0  0  0  0  0  0
 38 39  1  0  0  0
 39 40  1  0  0  0
 39 41  1  0  0  0
 39 37  1  0  0  0
 37 33  1  0  0  0
 33 34  2  0  0  0
 33 35  1  0  0  0
 35 32  1  0  0  0
 32 31  1  0  0  0
 31  1  1  0  0  0
  1  2  2  0  0  0
  2  3  1  0  0  0
  3  4  2  0  0  0
  4  5  1  0  0  0
  5  6  2  0  0  0
  6  7  1  0  0  0
  7  8  2  0  0  0
  8 11  1  0  0  0
 11 13  1  0  0  0
 13 14  2  0  0  0
 14 15  1  0  0  0
 15 16  2  0  0  0
 16 20  1  0  0  0
 20 21  1  0  0  0
 21 22  2  0  0  0
 22 23  1  0  0  0
 23 24  2  0  0  0
 24 25  1  0  0  0
 25 27  1  0  0  0
 27 28  1  0  0  0
 27 29  1  0  0  0
 27 30  1  0  0  0
 25 26  2  0  0  0
 16 17  1  0  0  0
 17 18  1  0  0  0
 17 19  2  0  0  0
  8  9  1  0  0  0
  9 10  2  0  0  0
 10  1  1  0  0  0
  9  4  1  0  0  0
 19 13  1  0  0  0
 26 21  1  0  0  0
 41 42  1  0  0  0
 35 36  1  0  0  0
 11 12  1  0  0  0
M  END
> <minimizedAffinity>
-8.65737

> <CNNscore>
0.2802630961

> <CNNaffinity>
7.3087549210

> <CNN_VS>
2.0483741760

> <CNNaffinity_variance>
0.3510071933

$$$$
[H]OC(C([H])([H])[H])(C([H])([H])[H])C([H])([H])C(=O)N([H])C([H])([H])C([H])([H])c1c([H])c([H])c2nc([H])nc(N([H])c3c([H])c([H])c(Oc4c([H])c([H])c([H])c(C(F)(F)F)c4[H])c(Cl)c3[H])c2c1[H]


 42 45  0  0  0  0  0  0  0  0999 V2000
    3.3061  -52.6519  -25.2601 C   0  0  0  0  0  0  0  0  0  0  0  0
    3.6224  -52.1575  -26.4938 C   0  0  0  0  0  0  0  0  0  0  0  0
    2.6931  -52.1144  -27.4866 C   0  0  0  0  0  0  0  0  0  0  0  0
    1.3986  -52.5731  -27.2837 C   0  0  0  0  0  0  0  0  0  0  0  0
    0.5386  -52.5112  -28.3203 N   0  0  0  0  0  0  0  0  0  0  0  0
   -0.7098  -52.9682  -28.1476 C   0  0  0  0  0  0  0  0  0  0  0  0
   -1.0141  -53.4576  -26.9518 N   0  0  0  0  0  0  0  0  0  0  0  0
   -0.2324  -53.5526  -25.8879 C   0  0  0  0  0  0  0  0  0  0  0  0
    1.0756  -53.0771  -26.0423 C   0  0  0  0  0  0  0  0  0  0  0  0
    1.9910  -53.1218  -25.0420 C   0  0  0  0  0  0  0  0  0  0  0  0
   -0.6373  -54.1553  -24.6833 N   0  0  0  0  0  0  0  0  0  0  0  0
   -1.0721  -55.1127  -24.6461 H   0  0  0  0  0  0  0  0  0  0  0  0
   -0.5014  -53.5192  -23.4212 C   0  0  0  0  0  0  0  0  0  0  0  0
   -0.8976  -52.2491  -23.1385 C   0  0  0  0  0  0  0  0  0  0  0  0
   -0.8375  -51.7182  -21.8467 C   0  0  0  0  0  0  0  0  0  0  0  0
   -0.3521  -52.5044  -20.7868 C   0  0  0  0  0  0  0  0  0  0  0  0
    0.0581  -53.7902  -21.0540 C   0  0  0  0  0  0  0  0  0  0  0  0
    0.7046  -54.8350  -19.7739 Cl  0  0  0  0  0  0  0  0  0  0  0  0
   -0.0250  -54.2624  -22.3444 C   0  0  0  0  0  0  0  0  0  0  0  0
   -0.3282  -51.9374  -19.5697 O   0  0  0  0  0  0  0  0  0  0  0  0
    0.4671  -51.1032  -18.8794 C   0  0  0  0  0  0  0  0  0  0  0  0
    0.0116  -50.6179  -17.6423 C   0  0  0  0  0  0  0  0  0  0  0  0
    0.8043  -49.7704  -16.9215 C   0  0  0  0  0  0  0  0  0  0  0  0
    2.0368  -49.4020  -17.4148 C   0  0  0  0  0  0  0  0  0  0  0  0
    2.5116  -49.8576  -18.6236 C   0  0  0  0  0  0  0  0  0  0  0  0
    1.7249  -50.7084  -19.3519 C   0  0  0  0  0  0  0  0  0  0  0  0
    3.8435  -49.3918  -19.0933 C   0  0  0  0  0  0  0  0  0  0  0  0
    4.0712  -49.8583  -20.4026 F   0  0  0  0  0  0  0  0  0  0  0  0
    3.7989  -48.0156  -19.1809 F   0  0  0  0  0  0  0  0  0  0  0  0
    4.8497  -49.7593  -18.2460 F   0  0  0  0  0  0  0  0  0  0  0  0
    4.2761  -52.7611  -24.1953 C   0  0  0  0  0  0  0  0  0  0  0  0
    4.1962  -51.7356  -23.0826 C   0  0  0  0  0  0  0  0  0  0  0  0
    3.7885  -49.1685  -23.9821 C   0  0  0  0  0  0  0  0  0  0  0  0
    3.2435  -48.8221  -25.0485 O   0  0  0  0  0  0  0  0  0  0  0  0
    3.9929  -50.4506  -23.5313 N   0  0  0  0  0  0  0  0  0  0  0  0
    3.2608  -50.9299  -24.5819 H   0  0  0  0  0  0  0  0  0  0  0  0
    4.2597  -48.0156  -23.1266 C   0  0  0  0  0  0  0  0  0  0  0  0
    3.7655  -46.0459  -21.7376 C   0  0  0  0  0  0  0  0  0  0  0  0
    3.2105  -47.1190  -22.6213 C   0  0  0  0  0  0  0  0  0  0  0  0
    2.0263  -47.8423  -22.0017 C   0  0  0  0  0  0  0  0  0  0  0  0
    2.6893  -46.4446  -23.7826 O   0  0  0  0  0  0  0  0  0  0  0  0
    2.6579  -47.1373  -24.4962 H   0  0  0  0  0  0  0  0  0  0  0  0
 38 39  1  0  0  0
 39 40  1  0  0  0
 39 41  1  0  0  0
 39 37  1  0  0  0
 37 33  1  0  0  0
 33 34  2  0  0  0
 33 35  1  0  0  0
 35 32  1  0  0  0
 32 31  1  0  0  0
 31  1  1  0  0  0
  1  2  2  0  0  0
  2  3  1  0  0  0
  3  4  2  0  0  0
  4  5  1  0  0  0
  5  6  2  0  0  0
  6  7  1  0  0  0
  7  8  2  0  0  0
  8 11  1  0  0  0
 11 13  1  0  0  0
 13 14  2  0  0  0
 14 15  1  0  0  0
 15 16  2  0  0  0
 16 20  1  0  0  0
 20 21  1  0  0  0
 21 22  2  0  0  0
 22 23  1  0  0  0
 23 24  2  0  0  0
 24 25  1  0  0  0
 25 27  1  0  0  0
 27 28  1  0  0  0
 27 29  1  0  0  0
 27 30  1  0  0  0
 25 26  2  0  0  0
 16 17  1  0  0  0
 17 18  1  0  0  0
 17 19  2  0  0  0
  8  9  1  0  0  0
  9 10  2  0  0  0
 10  1  1  0  0  0
  9  4  1  0  0  0
 19 13  1  0  0  0
 26 21  1  0  0  0
 41 42  1  0  0  0
 35 36  1  0  0  0
 11 12  1  0  0  0
M  END
> <minimizedAffinity>
-7.18851

> <CNNscore>
0.2191534042

> <CNNaffinity>
7.0048408508

> <CNN_VS>
1.5351346731

> <CNNaffinity_variance>
0.6393219829

$$$$
[H]OC(C([H])([H])[H])(C([H])([H])[H])C([H])([H])C(=O)N([H])C([H])([H])C([H])([H])c1c([H])c([H])c2nc([H])nc(N([H])c3c([H])c([H])c(Oc4c([H])c([H])c([H])c(C(F)(F)F)c4[H])c(Cl)c3[H])c2c1[H]


 42 45  0  0  0  0  0  0  0  0999 V2000
   -0.8269  -52.3477  -24.9197 C   0  0  0  0  0  0  0  0  0  0  0  0
   -2.0426  -52.1398  -25.5073 C   0  0  0  0  0  0  0  0  0  0  0  0
   -2.1896  -52.2336  -26.8566 C   0  0  0  0  0  0  0  0  0  0  0  0
   -1.1144  -52.5377  -27.6803 C   0  0  0  0  0  0  0  0  0  0  0  0
   -1.3359  -52.5984  -29.0089 N   0  0  0  0  0  0  0  0  0  0  0  0
   -0.3043  -52.8713  -29.8205 C   0  0  0  0  0  0  0  0  0  0  0  0
    0.8788  -53.0634  -29.2502 N   0  0  0  0  0  0  0  0  0  0  0  0
    1.1778  -53.0225  -27.9614 C   0  0  0  0  0  0  0  0  0  0  0  0
    0.1153  -52.7438  -27.0930 C   0  0  0  0  0  0  0  0  0  0  0  0
    0.2753  -52.6579  -25.7485 C   0  0  0  0  0  0  0  0  0  0  0  0
    2.4858  -53.1732  -27.4669 N   0  0  0  0  0  0  0  0  0  0  0  0
    3.0724  -54.0241  -27.6642 H   0  0  0  0  0  0  0  0  0  0  0  0
    3.1184  -52.1956  -26.6545 C   0  0  0  0  0  0  0  0  0  0  0  0
    3.1034  -50.8556  -26.8878 C   0  0  0  0  0  0  0  0  0  0  0  0
    3.6515  -49.9351  -25.9898 C   0  0  0  0  0  0  0  0  0  0  0  0
    4.2469  -50.3862  -24.7984 C   0  0  0  0  0  0  0  0  0  0  0  0
    4.2763  -51.7386  -24.5472 C   0  0  0  0  0  0  0  0  0  0  0  0
    5.0310  -52.3856  -23.0775 Cl  0  0  0  0  0  0  0  0  0  0  0  0
    3.7195  -52.5999  -25.4654 C   0  0  0  0  0  0  0  0  0  0  0  0
    4.7471  -49.4500  -23.9758 O   0  0  0  0  0  0  0  0  0  0  0  0
    4.3415  -48.7562  -22.8992 C   0  0  0  0  0  0  0  0  0  0  0  0
    3.4801  -47.6639  -23.0950 C   0  0  0  0  0  0  0  0  0  0  0  0
    3.0525  -46.9451  -22.0148 C   0  0  0  0  0  0  0  0  0  0  0  0
    3.4703  -47.2980  -20.7502 C   0  0  0  0  0  0  0  0  0  0  0  0
    4.3152  -48.3607  -20.5243 C   0  0  0  0  0  0  0  0  0  0  0  0
    4.7474  -49.0876  -21.6005 C   0  0  0  0  0  0  0  0  0  0  0  0
    4.7364  -48.6591  -19.1296 C   0  0  0  0  0  0  0  0  0  0  0  0
    4.6973  -50.0502  -18.9128 F   0  0  0  0  0  0  0  0  0  0  0  0
    6.0598  -48.2903  -19.0038 F   0  0  0  0  0  0  0  0  0  0  0  0
    3.9886  -47.9847  -18.2068 F   0  0  0  0  0  0  0  0  0  0  0  0
   -0.6181  -52.2087  -23.4971 C   0  0  0  0  0  0  0  0  0  0  0  0
    0.8169  -52.1600  -23.0129 C   0  0  0  0  0  0  0  0  0  0  0  0
    1.1003  -52.7873  -20.3500 C   0  0  0  0  0  0  0  0  0  0  0  0
    0.5945  -53.7537  -19.7462 O   0  0  0  0  0  0  0  0  0  0  0  0
    0.9597  -52.4725  -21.6804 N   0  0  0  0  0  0  0  0  0  0  0  0
    0.2886  -53.6468  -21.8806 H   0  0  0  0  0  0  0  0  0  0  0  0
    1.9520  -51.8927  -19.4796 C   0  0  0  0  0  0  0  0  0  0  0  0
    0.9665  -49.6409  -19.5865 C   0  0  0  0  0  0  0  0  0  0  0  0
    1.2352  -50.8449  -18.7389 C   0  0  0  0  0  0  0  0  0  0  0  0
    1.8624  -50.4974  -17.3989 C   0  0  0  0  0  0  0  0  0  0  0  0
   -0.0547  -51.4068  -18.4299 O   0  0  0  0  0  0  0  0  0  0  0  0
    0.1228  -52.3572  -18.1947 H   0  0  0  0  0  0  0  0  0  0  0  0
 38 39  1  0  0  0
 39 40  1  0  0  0
 39 41  1  0  0  0
 39 37  1  0  0  0
 37 33  1  0  0  0
 33 34  2  0  0  0
 33 35  1  0  0  0
 35 32  1  0  0  0
 32 31  1  0  0  0
 31  1  1  0  0  0
  1  2  2  0  0  0
  2  3  1  0  0  0
  3  4  2  0  0  0
  4  5  1  0  0  0
  5  6  2  0  0  0
  6  7  1  0  0  0
  7  8  2  0  0  0
  8 11  1  0  0  0
 11 13  1  0  0  0
 13 14  2  0  0  0
 14 15  1  0  0  0
 15 16  2  0  0  0
 16 20  1  0  0  0
 20 21  1  0  0  0
 21 22  2  0  0  0
 22 23  1  0  0  0
 23 24  2  0  0  0
 24 25  1  0  0  0
 25 27  1  0  0  0
 27 28  1  0  0  0
 27 29  1  0  0  0
 27 30  1  0  0  0
 25 26  2  0  0  0
 16 17  1  0  0  0
 17 18  1  0  0  0
 17 19  2  0  0  0
  8  9  1  0  0  0
  9 10  2  0  0  0
 10  1  1  0  0  0
  9  4  1  0  0  0
 19 13  1  0  0  0
 26 21  1  0  0  0
 41 42  1  0  0  0
 35 36  1  0  0  0
 11 12  1  0  0  0
M  END
> <minimizedAffinity>
-7.39630

> <CNNscore>
0.1724311709

> <CNNaffinity>
7.0602264404

> <CNN_VS>
1.2174030542

> <CNNaffinity_variance>
0.3337474763

$$$$
[H]OC(C([H])([H])[H])(C([H])([H])[H])C([H])([H])C(=O)N([H])C([H])([H])C([H])([H])c1c([H])c([H])c2nc([H])nc(N([H])c3c([H])c([H])c(Oc4c([H])c([H])c([H])c(C(F)(F)F)c4[H])c(Cl)c3[H])c2c1[H]


 42 45  0  0  0  0  0  0  0  0999 V2000
    3.5092  -52.4406  -25.0607 C   0  0  0  0  0  0  0  0  0  0  0  0
    3.4331  -51.8450  -26.2878 C   0  0  0  0  0  0  0  0  0  0  0  0
    2.2378  -51.7073  -26.9228 C   0  0  0  0  0  0  0  0  0  0  0  0
    1.0598  -52.1689  -26.3515 C   0  0  0  0  0  0  0  0  0  0  0  0
   -0.0833  -52.0094  -27.0486 N   0  0  0  0  0  0  0  0  0  0  0  0
   -1.2272  -52.4673  -26.5204 C   0  0  0  0  0  0  0  0  0  0  0  0
   -1.1517  -53.0549  -25.3326 N   0  0  0  0  0  0  0  0  0  0  0  0
   -0.0753  -53.2490  -24.5871 C   0  0  0  0  0  0  0  0  0  0  0  0
    1.1316  -52.7748  -25.1157 C   0  0  0  0  0  0  0  0  0  0  0  0
    2.3161  -52.9146  -24.4692 C   0  0  0  0  0  0  0  0  0  0  0  0
   -0.0965  -53.9492  -23.3675 N   0  0  0  0  0  0  0  0  0  0  0  0
   -0.1233  -54.9998  -23.3170 H   0  0  0  0  0  0  0  0  0  0  0  0
   -0.0925  -53.2974  -22.1061 C   0  0  0  0  0  0  0  0  0  0  0  0
   -0.1492  -53.9252  -20.9008 C   0  0  0  0  0  0  0  0  0  0  0  0
   -0.0298  -53.2331  -19.6921 C   0  0  0  0  0  0  0  0  0  0  0  0
    0.1534  -51.8389  -19.6968 C   0  0  0  0  0  0  0  0  0  0  0  0
    0.2082  -51.1855  -20.9063 C   0  0  0  0  0  0  0  0  0  0  0  0
    0.4131  -49.4251  -20.9931 Cl  0  0  0  0  0  0  0  0  0  0  0  0
    0.0870  -51.9172  -22.0660 C   0  0  0  0  0  0  0  0  0  0  0  0
    0.2689  -51.2363  -18.5023 O   0  0  0  0  0  0  0  0  0  0  0  0
    1.1815  -50.4996  -17.8470 C   0  0  0  0  0  0  0  0  0  0  0  0
    2.5416  -50.7356  -18.1074 C   0  0  0  0  0  0  0  0  0  0  0  0
    3.4873  -49.9969  -17.4546 C   0  0  0  0  0  0  0  0  0  0  0  0
    3.0977  -49.0328  -16.5508 C   0  0  0  0  0  0  0  0  0  0  0  0
    1.7743  -48.7782  -16.2714 C   0  0  0  0  0  0  0  0  0  0  0  0
    0.8198  -49.5123  -16.9219 C   0  0  0  0  0  0  0  0  0  0  0  0
    1.4409  -47.7358  -15.2645 C   0  0  0  0  0  0  0  0  0  0  0  0
    2.1009  -46.5356  -15.5923 F   0  0  0  0  0  0  0  0  0  0  0  0
    0.0911  -47.4697  -15.3684 F   0  0  0  0  0  0  0  0  0  0  0  0
    1.7268  -48.1356  -13.9902 F   0  0  0  0  0  0  0  0  0  0  0  0
    4.7636  -52.6508  -24.3759 C   0  0  0  0  0  0  0  0  0  0  0  0
    4.7595  -52.4990  -22.8683 C   0  0  0  0  0  0  0  0  0  0  0  0
    5.3141  -49.9428  -22.0176 C   0  0  0  0  0  0  0  0  0  0  0  0
    6.4391  -49.4305  -21.8563 O   0  0  0  0  0  0  0  0  0  0  0  0
    5.0353  -51.2197  -22.4426 N   0  0  0  0  0  0  0  0  0  0  0  0
    6.3652  -51.4217  -22.6874 H   0  0  0  0  0  0  0  0  0  0  0  0
    4.1628  -49.0183  -21.6964 C   0  0  0  0  0  0  0  0  0  0  0  0
    2.8511  -47.0335  -22.3235 C   0  0  0  0  0  0  0  0  0  0  0  0
    3.6808  -48.1824  -22.8051 C   0  0  0  0  0  0  0  0  0  0  0  0
    3.0144  -48.9657  -23.9241 C   0  0  0  0  0  0  0  0  0  0  0  0
    4.8620  -47.5999  -23.3887 O   0  0  0  0  0  0  0  0  0  0  0  0
    5.5452  -48.3232  -23.3753 H   0  0  0  0  0  0  0  0  0  0  0  0
 38 39  1  0  0  0
 39 40  1  0  0  0
 39 41  1  0  0  0
 39 37  1  0  0  0
 37 33  1  0  0  0
 33 34  2  0  0  0
 33 35  1  0  0  0
 35 32  1  0  0  0
 32 31  1  0  0  0
 31  1  1  0  0  0
  1  2  2  0  0  0
  2  3  1  0  0  0
  3  4  2  0  0  0
  4  5  1  0  0  0
  5  6  2  0  0  0
  6  7  1  0  0  0
  7  8  2  0  0  0
  8 11  1  0  0  0
 11 13  1  0  0  0
 13 14  2  0  0  0
 14 15  1  0  0  0
 15 16  2  0  0  0
 16 20  1  0  0  0
 20 21  1  0  0  0
 21 22  2  0  0  0
 22 23  1  0  0  0
 23 24  2  0  0  0
 24 25  1  0  0  0
 25 27  1  0  0  0
 27 28  1  0  0  0
 27 29  1  0  0  0
 27 30  1  0  0  0
 25 26  2  0  0  0
 16 17  1  0  0  0
 17 18  1  0  0  0
 17 19  2  0  0  0
  8  9  1  0  0  0
  9 10  2  0  0  0
 10  1  1  0  0  0
  9  4  1  0  0  0
 19 13  1  0  0  0
 26 21  1  0  0  0
 41 42  1  0  0  0
 35 36  1  0  0  0
 11 12  1  0  0  0
M  END
> <minimizedAffinity>
-7.26392

> <CNNscore>
0.1700837612

> <CNNaffinity>
6.8236756325

> <CNN_VS>
1.1605963707

> <CNNaffinity_variance>
0.5968918800

$$$$
[H]OC(C([H])([H])[H])(C([H])([H])[H])C([H])([H])C(=O)N([H])C([H])([H])C([H])([H])c1c([H])c([H])c2nc([H])nc(N([H])c3c([H])c([H])c(Oc4c([H])c([H])c([H])c(C(F)(F)F)c4[H])c(Cl)c3[H])c2c1[H]


 42 45  0  0  0  0  0  0  0  0999 V2000
    3.8903  -52.2336  -24.4550 C   0  0  0  0  0  0  0  0  0  0  0  0
    3.6577  -51.6328  -25.6597 C   0  0  0  0  0  0  0  0  0  0  0  0
    2.3878  -51.4230  -26.1003 C   0  0  0  0  0  0  0  0  0  0  0  0
    1.2889  -51.8141  -25.3475 C   0  0  0  0  0  0  0  0  0  0  0  0
    0.0620  -51.5856  -25.8578 N   0  0  0  0  0  0  0  0  0  0  0  0
   -1.0098  -51.9749  -25.1530 C   0  0  0  0  0  0  0  0  0  0  0  0
   -0.7836  -52.5676  -23.9870 N   0  0  0  0  0  0  0  0  0  0  0  0
    0.3832  -52.8267  -23.4182 C   0  0  0  0  0  0  0  0  0  0  0  0
    1.5180  -52.4249  -24.1335 C   0  0  0  0  0  0  0  0  0  0  0  0
    2.7790  -52.6362  -23.6798 C   0  0  0  0  0  0  0  0  0  0  0  0
    0.5125  -53.5261  -22.2047 N   0  0  0  0  0  0  0  0  0  0  0  0
    0.6041  -54.5733  -22.1605 H   0  0  0  0  0  0  0  0  0  0  0  0
    0.5209  -52.8788  -20.9410 C   0  0  0  0  0  0  0  0  0  0  0  0
    1.3351  -51.8451  -20.5969 C   0  0  0  0  0  0  0  0  0  0  0  0
    1.2185  -51.1778  -19.3740 C   0  0  0  0  0  0  0  0  0  0  0  0
    0.2345  -51.5726  -18.4502 C   0  0  0  0  0  0  0  0  0  0  0  0
   -0.5954  -52.6198  -18.7784 C   0  0  0  0  0  0  0  0  0  0  0  0
   -1.8448  -53.1909  -17.6555 Cl  0  0  0  0  0  0  0  0  0  0  0  0
   -0.4373  -53.2395  -19.9974 C   0  0  0  0  0  0  0  0  0  0  0  0
    0.1705  -50.8853  -17.2983 O   0  0  0  0  0  0  0  0  0  0  0  0
   -0.5841  -50.8801  -16.1868 C   0  0  0  0  0  0  0  0  0  0  0  0
   -0.1588  -51.6448  -15.0879 C   0  0  0  0  0  0  0  0  0  0  0  0
   -0.9088  -51.6528  -13.9461 C   0  0  0  0  0  0  0  0  0  0  0  0
   -2.0702  -50.9139  -13.8860 C   0  0  0  0  0  0  0  0  0  0  0  0
   -2.5157  -50.1562  -14.9451 C   0  0  0  0  0  0  0  0  0  0  0  0
   -1.7699  -50.1409  -16.0925 C   0  0  0  0  0  0  0  0  0  0  0  0
   -3.7926  -49.4070  -14.8047 C   0  0  0  0  0  0  0  0  0  0  0  0
   -3.6349  -48.1059  -15.3206 F   0  0  0  0  0  0  0  0  0  0  0  0
   -4.7307  -50.0242  -15.6063 F   0  0  0  0  0  0  0  0  0  0  0  0
   -4.2423  -49.3860  -13.5152 F   0  0  0  0  0  0  0  0  0  0  0  0
    5.2221  -52.5194  -23.9739 C   0  0  0  0  0  0  0  0  0  0  0  0
    6.1767  -51.3489  -23.8528 C   0  0  0  0  0  0  0  0  0  0  0  0
    5.4035  -49.4822  -21.9866 C   0  0  0  0  0  0  0  0  0  0  0  0
    6.1296  -48.6496  -21.4089 O   0  0  0  0  0  0  0  0  0  0  0  0
    5.7882  -50.4154  -22.9192 N   0  0  0  0  0  0  0  0  0  0  0  0
    7.0415  -49.8693  -22.9392 H   0  0  0  0  0  0  0  0  0  0  0  0
    3.9490  -49.4189  -21.5819 C   0  0  0  0  0  0  0  0  0  0  0  0
    1.7837  -48.2515  -21.6244 C   0  0  0  0  0  0  0  0  0  0  0  0
    3.1448  -48.3760  -22.2345 C   0  0  0  0  0  0  0  0  0  0  0  0
    3.1066  -48.4840  -23.7499 C   0  0  0  0  0  0  0  0  0  0  0  0
    3.8204  -47.1359  -21.9504 O   0  0  0  0  0  0  0  0  0  0  0  0
    4.7909  -47.3431  -22.0236 H   0  0  0  0  0  0  0  0  0  0  0  0
 38 39  1  0  0  0
 39 40  1  0  0  0
 39 41  1  0  0  0
 39 37  1  0  0  0
 37 33  1  0  0  0
 33 34  2  0  0  0
 33 35  1  0  0  0
 35 32  1  0  0  0
 32 31  1  0  0  0
 31  1  1  0  0  0
  1  2  2  0  0  0
  2  3  1  0  0  0
  3  4  2  0  0  0
  4  5  1  0  0  0
  5  6  2  0  0  0
  6  7  1  0  0  0
  7  8  2  0  0  0
  8 11  1  0  0  0
 11 13  1  0  0  0
 13 14  2  0  0  0
 14 15  1  0  0  0
 15 16  2  0  0  0
 16 20  1  0  0  0
 20 21  1  0  0  0
 21 22  2  0  0  0
 22 23  1  0  0  0
 23 24  2  0  0  0
 24 25  1  0  0  0
 25 27  1  0  0  0
 27 28  1  0  0  0
 27 29  1  0  0  0
 27 30  1  0  0  0
 25 26  2  0  0  0
 16 17  1  0  0  0
 17 18  1  0  0  0
 17 19  2  0  0  0
  8  9  1  0  0  0
  9 10  2  0  0  0
 10  1  1  0  0  0
  9  4  1  0  0  0
 19 13  1  0  0  0
 26 21  1  0  0  0
 41 42  1  0  0  0
 35 36  1  0  0  0
 11 12  1  0  0  0
M  END
> <minimizedAffinity>
-7.37034

> <CNNscore>
0.1680745780

> <CNNaffinity>
7.0021071434

> <CNN_VS>
1.1768761873

> <CNNaffinity_variance>
0.1436899751

$$$$
[H]OC(C([H])([H])[H])(C([H])([H])[H])C([H])([H])C(=O)N([H])C([H])([H])C([H])([H])c1c([H])c([H])c2nc([H])nc(N([H])c3c([H])c([H])c(Oc4c([H])c([H])c([H])c(C(F)(F)F)c4[H])c(Cl)c3[H])c2c1[H]


 42 45  0  0  0  0  0  0  0  0999 V2000
   -0.2863  -52.7735  -20.0108 C   0  0  0  0  0  0  0  0  0  0  0  0
   -1.3574  -53.5231  -20.4075 C   0  0  0  0  0  0  0  0  0  0  0  0
   -1.4718  -53.9487  -21.6947 C   0  0  0  0  0  0  0  0  0  0  0  0
   -0.5118  -53.6341  -22.6468 C   0  0  0  0  0  0  0  0  0  0  0  0
   -0.7026  -54.0795  -23.9050 N   0  0  0  0  0  0  0  0  0  0  0  0
    0.2048  -53.7680  -24.8414 C   0  0  0  0  0  0  0  0  0  0  0  0
    1.2403  -53.0313  -24.4581 N   0  0  0  0  0  0  0  0  0  0  0  0
    1.4998  -52.5578  -23.2496 C   0  0  0  0  0  0  0  0  0  0  0  0
    0.5684  -52.8742  -22.2529 C   0  0  0  0  0  0  0  0  0  0  0  0
    0.6976  -52.4470  -20.9717 C   0  0  0  0  0  0  0  0  0  0  0  0
    2.5966  -51.7243  -22.9658 N   0  0  0  0  0  0  0  0  0  0  0  0
    3.1727  -51.8230  -22.0909 H   0  0  0  0  0  0  0  0  0  0  0  0
    3.0106  -50.6768  -23.8302 C   0  0  0  0  0  0  0  0  0  0  0  0
    3.3780  -50.8344  -25.1303 C   0  0  0  0  0  0  0  0  0  0  0  0
    3.6692  -49.7484  -25.9610 C   0  0  0  0  0  0  0  0  0  0  0  0
    3.5890  -48.4381  -25.4570 C   0  0  0  0  0  0  0  0  0  0  0  0
    3.2239  -48.2587  -24.1426 C   0  0  0  0  0  0  0  0  0  0  0  0
    3.1238  -46.6377  -23.4282 Cl  0  0  0  0  0  0  0  0  0  0  0  0
    2.9462  -49.3641  -23.3705 C   0  0  0  0  0  0  0  0  0  0  0  0
    3.8735  -47.4399  -26.3090 O   0  0  0  0  0  0  0  0  0  0  0  0
    3.4011  -46.9645  -27.4734 C   0  0  0  0  0  0  0  0  0  0  0  0
    2.2716  -46.1298  -27.4443 C   0  0  0  0  0  0  0  0  0  0  0  0
    1.7750  -45.6326  -28.6157 C   0  0  0  0  0  0  0  0  0  0  0  0
    2.3851  -45.9549  -29.8082 C   0  0  0  0  0  0  0  0  0  0  0  0
    3.4914  -46.7713  -29.8716 C   0  0  0  0  0  0  0  0  0  0  0  0
    3.9968  -47.2728  -28.7027 C   0  0  0  0  0  0  0  0  0  0  0  0
    4.0744  -47.0881  -31.2025 C   0  0  0  0  0  0  0  0  0  0  0  0
    5.1161  -48.0238  -31.0501 F   0  0  0  0  0  0  0  0  0  0  0  0
    3.0998  -47.7201  -31.9469 F   0  0  0  0  0  0  0  0  0  0  0  0
    4.4953  -45.9696  -31.8637 F   0  0  0  0  0  0  0  0  0  0  0  0
   -0.1525  -52.2605  -18.6671 C   0  0  0  0  0  0  0  0  0  0  0  0
   -1.0363  -52.8783  -17.6026 C   0  0  0  0  0  0  0  0  0  0  0  0
   -1.4079  -51.2644  -15.4066 C   0  0  0  0  0  0  0  0  0  0  0  0
   -0.7236  -51.2414  -14.3647 O   0  0  0  0  0  0  0  0  0  0  0  0
   -1.2235  -52.0701  -16.5046 N   0  0  0  0  0  0  0  0  0  0  0  0
   -0.0564  -52.5315  -15.9621 H   0  0  0  0  0  0  0  0  0  0  0  0
   -2.5547  -50.2805  -15.4139 C   0  0  0  0  0  0  0  0  0  0  0  0
   -3.9605  -51.4051  -13.7369 C   0  0  0  0  0  0  0  0  0  0  0  0
   -3.8824  -50.8384  -15.1201 C   0  0  0  0  0  0  0  0  0  0  0  0
   -4.3984  -51.7954  -16.1818 C   0  0  0  0  0  0  0  0  0  0  0  0
   -4.7838  -49.7150  -15.1386 O   0  0  0  0  0  0  0  0  0  0  0  0
   -4.4761  -49.1441  -15.8932 H   0  0  0  0  0  0  0  0  0  0  0  0
 38 39  1  0  0  0
 39 40  1  0  0  0
 39 41  1  0  0  0
 39 37  1  0  0  0
 37 33  1  0  0  0
 33 34  2  0  0  0
 33 35  1  0  0  0
 35 32  1  0  0  0
 32 31  1  0  0  0
 31  1  1  0  0  0
  1  2  2  0  0  0
  2  3  1  0  0  0
  3  4  2  0  0  0
  4  5  1  0  0  0
  5  6  2  0  0  0
  6  7  1  0  0  0
  7  8  2  0  0  0
  8 11  1  0  0  0
 11 13  1  0  0  0
 13 14  2  0  0  0
 14 15  1  0  0  0
 15 16  2  0  0  0
 16 20  1  0  0  0
 20 21  1  0  0  0
 21 22  2  0  0  0
 22 23  1  0  0  0
 23 24  2  0  0  0
 24 25  1  0  0  0
 25 27  1  0  0  0
 27 28  1  0  0  0
 27 29  1  0  0  0
 27 30  1  0  0  0
 25 26  2  0  0  0
 16 17  1  0  0  0
 17 18  1  0  0  0
 17 19  2  0  0  0
  8  9  1  0  0  0
  9 10  2  0  0  0
 10  1  1  0  0  0
  9  4  1  0  0  0
 19 13  1  0  0  0
 26 21  1  0  0  0
 41 42  1  0  0  0
 35 36  1  0  0  0
 11 12  1  0  0  0
M  END
> <minimizedAffinity>
-8.21453

> <CNNscore>
0.1501020193

> <CNNaffinity>
6.8347334862

> <CNN_VS>
1.0259072781

> <CNNaffinity_variance>
0.1128974929

$$$$
[H]OC(C([H])([H])[H])(C([H])([H])[H])C([H])([H])C(=O)N([H])C([H])([H])C([H])([H])c1c([H])c([H])c2nc([H])nc(N([H])c3c([H])c([H])c(Oc4c([H])c([H])c([H])c(C(F)(F)F)c4[H])c(Cl)c3[H])c2c1[H]


 42 45  0  0  0  0  0  0  0  0999 V2000
    3.2983  -52.6577  -25.2249 C   0  0  0  0  0  0  0  0  0  0  0  0
    3.6796  -52.2366  -26.4673 C   0  0  0  0  0  0  0  0  0  0  0  0
    2.8035  -52.2528  -27.5080 C   0  0  0  0  0  0  0  0  0  0  0  0
    1.4992  -52.6999  -27.3464 C   0  0  0  0  0  0  0  0  0  0  0  0
    0.6945  -52.6998  -28.4283 N   0  0  0  0  0  0  0  0  0  0  0  0
   -0.5622  -53.1470  -28.2944 C   0  0  0  0  0  0  0  0  0  0  0  0
   -0.9295  -53.5655  -27.0894 N   0  0  0  0  0  0  0  0  0  0  0  0
   -0.2045  -53.5971  -25.9824 C   0  0  0  0  0  0  0  0  0  0  0  0
    1.1108  -53.1302  -26.0961 C   0  0  0  0  0  0  0  0  0  0  0  0
    1.9727  -53.1152  -25.0484 C   0  0  0  0  0  0  0  0  0  0  0  0
   -0.6730  -54.1282  -24.7672 N   0  0  0  0  0  0  0  0  0  0  0  0
   -1.1772  -55.0498  -24.7079 H   0  0  0  0  0  0  0  0  0  0  0  0
   -0.5127  -53.4618  -23.5238 C   0  0  0  0  0  0  0  0  0  0  0  0
   -0.8727  -52.1741  -23.2741 C   0  0  0  0  0  0  0  0  0  0  0  0
   -0.7908  -51.6100  -21.9977 C   0  0  0  0  0  0  0  0  0  0  0  0
   -0.3207  -52.3799  -20.9190 C   0  0  0  0  0  0  0  0  0  0  0  0
    0.0531  -53.6832  -21.1529 C   0  0  0  0  0  0  0  0  0  0  0  0
    0.6785  -54.7098  -19.8479 Cl  0  0  0  0  0  0  0  0  0  0  0  0
   -0.0503  -54.1880  -22.4295 C   0  0  0  0  0  0  0  0  0  0  0  0
   -0.2744  -51.7806  -19.7182 O   0  0  0  0  0  0  0  0  0  0  0  0
    0.5521  -50.9578  -19.0512 C   0  0  0  0  0  0  0  0  0  0  0  0
    0.1849  -50.5466  -17.7591 C   0  0  0  0  0  0  0  0  0  0  0  0
    1.0109  -49.7120  -17.0610 C   0  0  0  0  0  0  0  0  0  0  0  0
    2.1902  -49.2841  -17.6305 C   0  0  0  0  0  0  0  0  0  0  0  0
    2.5782  -49.6665  -18.8944 C   0  0  0  0  0  0  0  0  0  0  0  0
    1.7576  -50.5038  -19.6006 C   0  0  0  0  0  0  0  0  0  0  0  0
    3.8559  -49.1395  -19.4433 C   0  0  0  0  0  0  0  0  0  0  0  0
    3.8546  -49.2671  -20.8459 F   0  0  0  0  0  0  0  0  0  0  0  0
    3.8964  -47.7852  -19.1833 F   0  0  0  0  0  0  0  0  0  0  0  0
    4.9474  -49.7408  -18.8842 F   0  0  0  0  0  0  0  0  0  0  0  0
    4.2113  -52.7033  -24.1063 C   0  0  0  0  0  0  0  0  0  0  0  0
    4.2876  -51.4704  -23.2287 C   0  0  0  0  0  0  0  0  0  0  0  0
    6.8596  -50.6302  -22.7350 C   0  0  0  0  0  0  0  0  0  0  0  0
    7.7621  -50.4358  -23.5729 O   0  0  0  0  0  0  0  0  0  0  0  0
    5.5741  -51.0499  -22.9800 N   0  0  0  0  0  0  0  0  0  0  0  0
    5.8040  -50.9482  -24.3240 H   0  0  0  0  0  0  0  0  0  0  0  0
    7.2747  -50.3618  -21.3070 C   0  0  0  0  0  0  0  0  0  0  0  0
    8.0883  -48.8176  -19.5731 C   0  0  0  0  0  0  0  0  0  0  0  0
    7.7155  -48.9911  -21.0123 C   0  0  0  0  0  0  0  0  0  0  0  0
    6.7639  -47.9161  -21.5110 C   0  0  0  0  0  0  0  0  0  0  0  0
    8.9329  -48.8097  -21.7607 O   0  0  0  0  0  0  0  0  0  0  0  0
    8.7753  -49.2638  -22.6319 H   0  0  0  0  0  0  0  0  0  0  0  0
 38 39  1  0  0  0
 39 40  1  0  0  0
 39 41  1  0  0  0
 39 37  1  0  0  0
 37 33  1  0  0  0
 33 34  2  0  0  0
 33 35  1  0  0  0
 35 32  1  0  0  0
 32 31  1  0  0  0
 31  1  1  0  0  0
  1  2  2  0  0  0
  2  3  1  0  0  0
  3  4  2  0  0  0
  4  5  1  0  0  0
  5  6  2  0  0  0
  6  7  1  0  0  0
  7  8  2  0  0  0
  8 11  1  0  0  0
 11 13  1  0  0  0
 13 14  2  0  0  0
 14 15  1  0  0  0
 15 16  2  0  0  0
 16 20  1  0  0  0
 20 21  1  0  0  0
 21 22  2  0  0  0
 22 23  1  0  0  0
 23 24  2  0  0  0
 24 25  1  0  0  0
 25 27  1  0  0  0
 27 28  1  0  0  0
 27 29  1  0  0  0
 27 30  1  0  0  0
 25 26  2  0  0  0
 16 17  1  0  0  0
 17 18  1  0  0  0
 17 19  2  0  0  0
  8  9  1  0  0  0
  9 10  2  0  0  0
 10  1  1  0  0  0
  9  4  1  0  0  0
 19 13  1  0  0  0
 26 21  1  0  0  0
 41 42  1  0  0  0
 35 36  1  0  0  0
 11 12  1  0  0  0
M  END
> <minimizedAffinity>
-7.46427

> <CNNscore>
0.1439635456

> <CNNaffinity>
7.0368127823

> <CNN_VS>
1.0130444765

> <CNNaffinity_variance>
0.3134220839

$$$$
[H]OC(=O)c1c([H])c([H])c(C([H])([H])N([H])C(=O)c2c([H])c([H])c(C(C([H])([H])[H])(C([H])([H])[H])C([H])([H])[H])c([H])c2[H])c([H])c1F


 26 27  0  0  0  0  0  0  0  0999 V2000
   -1.1055  -53.7055  -20.7886 C   0  0  0  0  0  0  0  0  0  0  0  0
   -2.1270  -54.4166  -20.5556 O   0  0  0  0  0  0  0  0  0  0  0  0
   -0.4450  -53.8442  -22.0153 N   0  0  0  0  0  0  0  0  0  0  0  0
    0.4040  -53.2221  -22.1860 H   0  0  0  0  0  0  0  0  0  0  0  0
    0.3836  -50.9301  -17.9076 C   0  0  0  0  0  0  0  0  0  0  0  0
   -0.4319  -51.9839  -17.5410 C   0  0  0  0  0  0  0  0  0  0  0  0
   -0.9256  -52.8812  -18.4640 C   0  0  0  0  0  0  0  0  0  0  0  0
   -0.6188  -52.7535  -19.8016 C   0  0  0  0  0  0  0  0  0  0  0  0
    0.1840  -51.7235  -20.2056 C   0  0  0  0  0  0  0  0  0  0  0  0
    0.6688  -50.8324  -19.2461 C   0  0  0  0  0  0  0  0  0  0  0  0
    1.5883  -50.7494  -15.8057 C   0  0  0  0  0  0  0  0  0  0  0  0
    0.9246  -49.9525  -16.9110 C   0  0  0  0  0  0  0  0  0  0  0  0
   -0.2172  -49.1855  -16.2864 C   0  0  0  0  0  0  0  0  0  0  0  0
    1.8905  -48.9766  -17.5516 C   0  0  0  0  0  0  0  0  0  0  0  0
   -0.7886  -54.7207  -23.0952 C   0  0  0  0  0  0  0  0  0  0  0  0
   -0.5124  -54.1302  -24.4268 C   0  0  0  0  0  0  0  0  0  0  0  0
   -0.1804  -55.0115  -25.4763 C   0  0  0  0  0  0  0  0  0  0  0  0
    0.0580  -54.5426  -26.7418 C   0  0  0  0  0  0  0  0  0  0  0  0
   -0.0105  -53.1898  -27.0692 C   0  0  0  0  0  0  0  0  0  0  0  0
   -0.3332  -52.3197  -26.0478 C   0  0  0  0  0  0  0  0  0  0  0  0
   -0.4190  -50.9915  -26.3137 F   0  0  0  0  0  0  0  0  0  0  0  0
   -0.5753  -52.8055  -24.7574 C   0  0  0  0  0  0  0  0  0  0  0  0
    0.2373  -52.7600  -28.4314 C   0  0  0  0  0  0  0  0  0  0  0  0
   -0.7630  -52.4945  -29.1546 O   0  0  0  0  0  0  0  0  0  0  0  0
    1.5088  -52.6421  -28.9214 O   0  0  0  0  0  0  0  0  0  0  0  0
    2.0971  -51.8052  -28.8448 H   0  0  0  0  0  0  0  0  0  0  0  0
 11 12  1  0  0  0
 12 13  1  0  0  0
 12 14  1  0  0  0
 12  5  1  0  0  0
  5  6  2  0  0  0
  6  7  1  0  0  0
  7  8  2  0  0  0
  8  1  1  0  0  0
  1  2  2  0  0  0
  1  3  1  0  0  0
  3 15  1  0  0  0
 15 16  1  0  0  0
 16 17  2  0  0  0
 17 18  1  0  0  0
 18 19  2  0  0  0
 19 23  1  0  0  0
 23 24  2  0  0  0
 23 25  1  0  0  0
 19 20  1  0  0  0
 20 21  1  0  0  0
 20 22  2  0  0  0
  8  9  1  0  0  0
  9 10  2  0  0  0
 10  5  1  0  0  0
 22 16  1  0  0  0
  3  4  1  0  0  0
 25 26  1  0  0  0
M  END
> <minimizedAffinity>
-8.25376

> <CNNscore>
0.6470992565

> <CNNaffinity>
5.7546167374

> <CNN_VS>
3.7238082886

> <CNNaffinity_variance>
0.0772283524

$$$$
[H]OC(=O)c1c([H])c([H])c(C([H])([H])N([H])C(=O)c2c([H])c([H])c(C(C([H])([H])[H])(C([H])([H])[H])C([H])([H])[H])c([H])c2[H])c([H])c1F


 26 27  0  0  0  0  0  0  0  0999 V2000
   -1.0148  -53.6872  -20.8922 C   0  0  0  0  0  0  0  0  0  0  0  0
   -1.9438  -54.4541  -20.5023 O   0  0  0  0  0  0  0  0  0  0  0  0
   -0.5431  -53.8025  -22.2055 N   0  0  0  0  0  0  0  0  0  0  0  0
    0.2307  -53.1338  -22.5070 H   0  0  0  0  0  0  0  0  0  0  0  0
    0.7296  -50.8002  -18.2763 C   0  0  0  0  0  0  0  0  0  0  0  0
   -0.1264  -51.7776  -17.8054 C   0  0  0  0  0  0  0  0  0  0  0  0
   -0.7023  -52.7097  -18.6423 C   0  0  0  0  0  0  0  0  0  0  0  0
   -0.4405  -52.6957  -19.9953 C   0  0  0  0  0  0  0  0  0  0  0  0
    0.4001  -51.7438  -20.5014 C   0  0  0  0  0  0  0  0  0  0  0  0
    0.9681  -50.8148  -19.6273 C   0  0  0  0  0  0  0  0  0  0  0  0
    2.1098  -48.8012  -18.2484 C   0  0  0  0  0  0  0  0  0  0  0  0
    1.3598  -49.7856  -17.3735 C   0  0  0  0  0  0  0  0  0  0  0  0
    2.3781  -50.4632  -16.4871 C   0  0  0  0  0  0  0  0  0  0  0  0
    0.3291  -49.0894  -16.5082 C   0  0  0  0  0  0  0  0  0  0  0  0
   -0.9950  -54.7115  -23.2164 C   0  0  0  0  0  0  0  0  0  0  0  0
   -0.6117  -54.2883  -24.5848 C   0  0  0  0  0  0  0  0  0  0  0  0
   -0.6770  -52.9122  -24.8854 C   0  0  0  0  0  0  0  0  0  0  0  0
   -0.3092  -52.4420  -26.1191 C   0  0  0  0  0  0  0  0  0  0  0  0
    0.1448  -53.2765  -27.1387 C   0  0  0  0  0  0  0  0  0  0  0  0
    0.2102  -54.6252  -26.8538 C   0  0  0  0  0  0  0  0  0  0  0  0
    0.6512  -55.4817  -27.8098 F   0  0  0  0  0  0  0  0  0  0  0  0
   -0.1671  -55.0986  -25.5916 C   0  0  0  0  0  0  0  0  0  0  0  0
    0.5339  -52.7140  -28.4169 C   0  0  0  0  0  0  0  0  0  0  0  0
   -0.3847  -52.3350  -29.1957 O   0  0  0  0  0  0  0  0  0  0  0  0
    1.8493  -52.5933  -28.7717 O   0  0  0  0  0  0  0  0  0  0  0  0
    2.4508  -51.7925  -28.5500 H   0  0  0  0  0  0  0  0  0  0  0  0
 11 12  1  0  0  0
 12 13  1  0  0  0
 12 14  1  0  0  0
 12  5  1  0  0  0
  5  6  2  0  0  0
  6  7  1  0  0  0
  7  8  2  0  0  0
  8  1  1  0  0  0
  1  2  2  0  0  0
  1  3  1  0  0  0
  3 15  1  0  0  0
 15 16  1  0  0  0
 16 17  2  0  0  0
 17 18  1  0  0  0
 18 19  2  0  0  0
 19 23  1  0  0  0
 23 24  2  0  0  0
 23 25  1  0  0  0
 19 20  1  0  0  0
 20 21  1  0  0  0
 20 22  2  0  0  0
  8  9  1  0  0  0
  9 10  2  0  0  0
 10  5  1  0  0  0
 22 16  1  0  0  0
  3  4  1  0  0  0
 25 26  1  0  0  0
M  END
> <minimizedAffinity>
-7.86821

> <CNNscore>
0.6387991905

> <CNNaffinity>
5.8287587166

> <CNN_VS>
3.7234063148

> <CNNaffinity_variance>
0.0784867406

$$$$
[H]OC(=O)c1c([H])c([H])c(C([H])([H])N([H])C(=O)c2c([H])c([H])c(C(C([H])([H])[H])(C([H])([H])[H])C([H])([H])[H])c([H])c2[H])c([H])c1F


 26 27  0  0  0  0  0  0  0  0999 V2000
   -1.0608  -53.6697  -20.7157 C   0  0  0  0  0  0  0  0  0  0  0  0
   -2.0842  -54.3727  -20.4668 O   0  0  0  0  0  0  0  0  0  0  0  0
   -0.4223  -53.8116  -21.9537 N   0  0  0  0  0  0  0  0  0  0  0  0
    0.4289  -53.1963  -22.1376 H   0  0  0  0  0  0  0  0  0  0  0  0
    0.3783  -50.8752  -17.8278 C   0  0  0  0  0  0  0  0  0  0  0  0
    0.7522  -50.7983  -19.1560 C   0  0  0  0  0  0  0  0  0  0  0  0
    0.3005  -51.7005  -20.0956 C   0  0  0  0  0  0  0  0  0  0  0  0
   -0.5494  -52.7238  -19.7353 C   0  0  0  0  0  0  0  0  0  0  0  0
   -0.9420  -52.8356  -18.4306 C   0  0  0  0  0  0  0  0  0  0  0  0
   -0.4678  -51.9054  -17.5035 C   0  0  0  0  0  0  0  0  0  0  0  0
    1.8474  -48.9706  -17.4863 C   0  0  0  0  0  0  0  0  0  0  0  0
    0.8635  -49.8985  -16.8020 C   0  0  0  0  0  0  0  0  0  0  0  0
    1.6201  -50.6359  -15.7223 C   0  0  0  0  0  0  0  0  0  0  0  0
   -0.2820  -49.1311  -16.1739 C   0  0  0  0  0  0  0  0  0  0  0  0
   -0.7915  -54.6830  -23.0291 C   0  0  0  0  0  0  0  0  0  0  0  0
   -0.5164  -54.0993  -24.3641 C   0  0  0  0  0  0  0  0  0  0  0  0
   -0.1959  -54.9870  -25.4118 C   0  0  0  0  0  0  0  0  0  0  0  0
    0.0408  -54.5244  -26.6800 C   0  0  0  0  0  0  0  0  0  0  0  0
   -0.0183  -53.1722  -27.0119 C   0  0  0  0  0  0  0  0  0  0  0  0
   -0.3296  -52.2960  -25.9921 C   0  0  0  0  0  0  0  0  0  0  0  0
   -0.4061  -50.9681  -26.2624 F   0  0  0  0  0  0  0  0  0  0  0  0
   -0.5701  -52.7754  -24.6991 C   0  0  0  0  0  0  0  0  0  0  0  0
    0.2270  -52.7492  -28.3766 C   0  0  0  0  0  0  0  0  0  0  0  0
   -0.7749  -52.5054  -29.1050 O   0  0  0  0  0  0  0  0  0  0  0  0
    1.4981  -52.6149  -28.8635 O   0  0  0  0  0  0  0  0  0  0  0  0
    2.0728  -51.7682  -28.7916 H   0  0  0  0  0  0  0  0  0  0  0  0
 11 12  1  0  0  0
 12 13  1  0  0  0
 12 14  1  0  0  0
 12  5  1  0  0  0
  5  6  2  0  0  0
  6  7  1  0  0  0
  7  8  2  0  0  0
  8  1  1  0  0  0
  1  2  2  0  0  0
  1  3  1  0  0  0
  3 15  1  0  0  0
 15 16  1  0  0  0
 16 17  2  0  0  0
 17 18  1  0  0  0
 18 19  2  0  0  0
 19 23  1  0  0  0
 23 24  2  0  0  0
 23 25  1  0  0  0
 19 20  1  0  0  0
 20 21  1  0  0  0
 20 22  2  0  0  0
  8  9  1  0  0  0
  9 10  2  0  0  0
 10  5  1  0  0  0
 22 16  1  0  0  0
  3  4  1  0  0  0
 25 26  1  0  0  0
M  END
> <minimizedAffinity>
-8.25875

> <CNNscore>
0.6101817489

> <CNNaffinity>
5.7221856117

> <CNN_VS>
3.4915733337

> <CNNaffinity_variance>
0.0796126202

$$$$
[H]OC(=O)c1c([H])c([H])c(C([H])([H])N([H])C(=O)c2c([H])c([H])c(C(C([H])([H])[H])(C([H])([H])[H])C([H])([H])[H])c([H])c2[H])c([H])c1F


 26 27  0  0  0  0  0  0  0  0999 V2000
   -0.9874  -53.4772  -20.8279 C   0  0  0  0  0  0  0  0  0  0  0  0
   -1.8383  -54.3778  -20.5668 O   0  0  0  0  0  0  0  0  0  0  0  0
   -0.4841  -53.3733  -22.1303 N   0  0  0  0  0  0  0  0  0  0  0  0
    0.2211  -52.5966  -22.3209 H   0  0  0  0  0  0  0  0  0  0  0  0
    0.4032  -50.7935  -17.8138 C   0  0  0  0  0  0  0  0  0  0  0  0
   -0.3771  -51.8901  -17.5002 C   0  0  0  0  0  0  0  0  0  0  0  0
   -0.8389  -52.7586  -18.4663 C   0  0  0  0  0  0  0  0  0  0  0  0
   -0.5344  -52.5574  -19.7953 C   0  0  0  0  0  0  0  0  0  0  0  0
    0.2340  -51.4830  -20.1475 C   0  0  0  0  0  0  0  0  0  0  0  0
    0.6871  -50.6228  -19.1452 C   0  0  0  0  0  0  0  0  0  0  0  0
    1.9282  -48.9411  -17.4329 C   0  0  0  0  0  0  0  0  0  0  0  0
    0.9096  -49.8468  -16.7702 C   0  0  0  0  0  0  0  0  0  0  0  0
    1.6328  -50.6225  -15.6945 C   0  0  0  0  0  0  0  0  0  0  0  0
   -0.2169  -49.0524  -16.1412 C   0  0  0  0  0  0  0  0  0  0  0  0
   -0.8220  -54.1845  -23.2617 C   0  0  0  0  0  0  0  0  0  0  0  0
   -0.0472  -53.8317  -24.4756 C   0  0  0  0  0  0  0  0  0  0  0  0
    1.1983  -53.1961  -24.2940 C   0  0  0  0  0  0  0  0  0  0  0  0
    1.9851  -52.8674  -25.3670 C   0  0  0  0  0  0  0  0  0  0  0  0
    1.6135  -53.1342  -26.6833 C   0  0  0  0  0  0  0  0  0  0  0  0
    0.3951  -53.7546  -26.8706 C   0  0  0  0  0  0  0  0  0  0  0  0
   -0.0124  -54.0426  -28.1328 F   0  0  0  0  0  0  0  0  0  0  0  0
   -0.4034  -54.0875  -25.7701 C   0  0  0  0  0  0  0  0  0  0  0  0
    2.4990  -52.7751  -27.7736 C   0  0  0  0  0  0  0  0  0  0  0  0
    2.8621  -51.5692  -27.8624 O   0  0  0  0  0  0  0  0  0  0  0  0
    2.9313  -53.7068  -28.6769 O   0  0  0  0  0  0  0  0  0  0  0  0
    3.7620  -54.2983  -28.5650 H   0  0  0  0  0  0  0  0  0  0  0  0
 11 12  1  0  0  0
 12 13  1  0  0  0
 12 14  1  0  0  0
 12  5  1  0  0  0
  5  6  2  0  0  0
  6  7  1  0  0  0
  7  8  2  0  0  0
  8  1  1  0  0  0
  1  2  2  0  0  0
  1  3  1  0  0  0
  3 15  1  0  0  0
 15 16  1  0  0  0
 16 17  2  0  0  0
 17 18  1  0  0  0
 18 19  2  0  0  0
 19 23  1  0  0  0
 23 24  2  0  0  0
 23 25  1  0  0  0
 19 20  1  0  0  0
 20 21  1  0  0  0
 20 22  2  0  0  0
  8  9  1  0  0  0
  9 10  2  0  0  0
 10  5  1  0  0  0
 22 16  1  0  0  0
  3  4  1  0  0  0
 25 26  1  0  0  0
M  END
> <minimizedAffinity>
-7.86456

> <CNNscore>
0.5950225592

> <CNNaffinity>
5.8146295547

> <CNN_VS>
3.4598357677

> <CNNaffinity_variance>
0.1141744703

$$$$
[H]OC(=O)c1c([H])c([H])c(C([H])([H])N([H])C(=O)c2c([H])c([H])c(C(C([H])([H])[H])(C([H])([H])[H])C([H])([H])[H])c([H])c2[H])c([H])c1F


 26 27  0  0  0  0  0  0  0  0999 V2000
    1.2394  -52.0942  -19.8493 C   0  0  0  0  0  0  0  0  0  0  0  0
    2.4352  -52.1693  -19.4397 O   0  0  0  0  0  0  0  0  0  0  0  0
    0.2114  -51.9053  -18.9177 N   0  0  0  0  0  0  0  0  0  0  0  0
   -0.7831  -51.8333  -19.2956 H   0  0  0  0  0  0  0  0  0  0  0  0
    0.3555  -52.4638  -24.0090 C   0  0  0  0  0  0  0  0  0  0  0  0
    1.1819  -51.4639  -23.5322 C   0  0  0  0  0  0  0  0  0  0  0  0
    1.4673  -51.3298  -22.1901 C   0  0  0  0  0  0  0  0  0  0  0  0
    0.9288  -52.2000  -21.2670 C   0  0  0  0  0  0  0  0  0  0  0  0
    0.1050  -53.2023  -21.6978 C   0  0  0  0  0  0  0  0  0  0  0  0
   -0.1635  -53.3119  -23.0636 C   0  0  0  0  0  0  0  0  0  0  0  0
    1.0608  -51.8030  -26.2379 C   0  0  0  0  0  0  0  0  0  0  0  0
    0.0421  -52.6166  -25.4650 C   0  0  0  0  0  0  0  0  0  0  0  0
   -1.3168  -52.0228  -25.7530 C   0  0  0  0  0  0  0  0  0  0  0  0
    0.0518  -54.0709  -25.8900 C   0  0  0  0  0  0  0  0  0  0  0  0
    0.3371  -51.7748  -17.4966 C   0  0  0  0  0  0  0  0  0  0  0  0
   -0.9720  -51.6549  -16.8109 C   0  0  0  0  0  0  0  0  0  0  0  0
   -1.1602  -50.5542  -15.9499 C   0  0  0  0  0  0  0  0  0  0  0  0
   -2.3538  -50.3597  -15.3050 C   0  0  0  0  0  0  0  0  0  0  0  0
   -3.4397  -51.2202  -15.4545 C   0  0  0  0  0  0  0  0  0  0  0  0
   -3.2638  -52.3013  -16.2941 C   0  0  0  0  0  0  0  0  0  0  0  0
   -4.2920  -53.1676  -16.4798 F   0  0  0  0  0  0  0  0  0  0  0  0
   -2.0420  -52.4939  -16.9495 C   0  0  0  0  0  0  0  0  0  0  0  0
   -4.6810  -50.9493  -14.7562 C   0  0  0  0  0  0  0  0  0  0  0  0
   -5.2006  -49.8082  -14.9035 O   0  0  0  0  0  0  0  0  0  0  0  0
   -5.2746  -51.8942  -13.9654 O   0  0  0  0  0  0  0  0  0  0  0  0
   -5.9365  -52.6071  -14.2909 H   0  0  0  0  0  0  0  0  0  0  0  0
 11 12  1  0  0  0
 12 13  1  0  0  0
 12 14  1  0  0  0
 12  5  1  0  0  0
  5  6  2  0  0  0
  6  7  1  0  0  0
  7  8  2  0  0  0
  8  1  1  0  0  0
  1  2  2  0  0  0
  1  3  1  0  0  0
  3 15  1  0  0  0
 15 16  1  0  0  0
 16 17  2  0  0  0
 17 18  1  0  0  0
 18 19  2  0  0  0
 19 23  1  0  0  0
 23 24  2  0  0  0
 23 25  1  0  0  0
 19 20  1  0  0  0
 20 21  1  0  0  0
 20 22  2  0  0  0
  8  9  1  0  0  0
  9 10  2  0  0  0
 10  5  1  0  0  0
 22 16  1  0  0  0
  3  4  1  0  0  0
 25 26  1  0  0  0
M  END
> <minimizedAffinity>
-7.70134

> <CNNscore>
0.5203317404

> <CNNaffinity>
5.6078786850

> <CNN_VS>
2.9179573059

> <CNNaffinity_variance>
0.1609298736

$$$$
[H]OC(=O)c1c([H])c([H])c(C([H])([H])N([H])C(=O)c2c([H])c([H])c(C(C([H])([H])[H])(C([H])([H])[H])C([H])([H])[H])c([H])c2[H])c([H])c1F


 26 27  0  0  0  0  0  0  0  0999 V2000
   -1.0591  -53.2640  -19.9171 C   0  0  0  0  0  0  0  0  0  0  0  0
   -2.0297  -54.0691  -20.0326 O   0  0  0  0  0  0  0  0  0  0  0  0
   -0.6954  -52.8149  -18.6418 N   0  0  0  0  0  0  0  0  0  0  0  0
    0.1339  -52.1479  -18.5770 H   0  0  0  0  0  0  0  0  0  0  0  0
    1.1278  -51.9824  -23.3516 C   0  0  0  0  0  0  0  0  0  0  0  0
    1.1801  -51.2842  -22.1601 C   0  0  0  0  0  0  0  0  0  0  0  0
    0.4713  -51.6840  -21.0472 C   0  0  0  0  0  0  0  0  0  0  0  0
   -0.3251  -52.8081  -21.0880 C   0  0  0  0  0  0  0  0  0  0  0  0
   -0.4052  -53.5261  -22.2485 C   0  0  0  0  0  0  0  0  0  0  0  0
    0.3258  -53.0956  -23.3575 C   0  0  0  0  0  0  0  0  0  0  0  0
    2.5349  -50.2174  -24.2498 C   0  0  0  0  0  0  0  0  0  0  0  0
    1.8957  -51.5553  -24.5638 C   0  0  0  0  0  0  0  0  0  0  0  0
    0.9410  -51.3365  -25.7139 C   0  0  0  0  0  0  0  0  0  0  0  0
    2.9305  -52.5874  -24.9633 C   0  0  0  0  0  0  0  0  0  0  0  0
   -1.2995  -53.1638  -17.3906 C   0  0  0  0  0  0  0  0  0  0  0  0
   -1.7667  -51.9819  -16.6268 C   0  0  0  0  0  0  0  0  0  0  0  0
   -0.8640  -50.9110  -16.4634 C   0  0  0  0  0  0  0  0  0  0  0  0
   -1.2343  -49.7727  -15.7961 C   0  0  0  0  0  0  0  0  0  0  0  0
   -2.5028  -49.6012  -15.2453 C   0  0  0  0  0  0  0  0  0  0  0  0
   -3.3923  -50.6451  -15.3989 C   0  0  0  0  0  0  0  0  0  0  0  0
   -4.6436  -50.5277  -14.8864 F   0  0  0  0  0  0  0  0  0  0  0  0
   -3.0075  -51.8050  -16.0817 C   0  0  0  0  0  0  0  0  0  0  0  0
   -2.8369  -48.3654  -14.5648 C   0  0  0  0  0  0  0  0  0  0  0  0
   -3.1309  -48.4311  -13.3388 O   0  0  0  0  0  0  0  0  0  0  0  0
   -2.8333  -47.1663  -15.2227 O   0  0  0  0  0  0  0  0  0  0  0  0
   -2.0160  -46.5572  -15.3379 H   0  0  0  0  0  0  0  0  0  0  0  0
 11 12  1  0  0  0
 12 13  1  0  0  0
 12 14  1  0  0  0
 12  5  1  0  0  0
  5  6  2  0  0  0
  6  7  1  0  0  0
  7  8  2  0  0  0
  8  1  1  0  0  0
  1  2  2  0  0  0
  1  3  1  0  0  0
  3 15  1  0  0  0
 15 16  1  0  0  0
 16 17  2  0  0  0
 17 18  1  0  0  0
 18 19  2  0  0  0
 19 23  1  0  0  0
 23 24  2  0  0  0
 23 25  1  0  0  0
 19 20  1  0  0  0
 20 21  1  0  0  0
 20 22  2  0  0  0
  8  9  1  0  0  0
  9 10  2  0  0  0
 10  5  1  0  0  0
 22 16  1  0  0  0
  3  4  1  0  0  0
 25 26  1  0  0  0
M  END
> <minimizedAffinity>
-7.26687

> <CNNscore>
0.5046790838

> <CNNaffinity>
5.3036346436

> <CNN_VS>
2.6766333580

> <CNNaffinity_variance>
0.2379128486

$$$$
[H]OC(=O)c1c([H])c([H])c(C([H])([H])N([H])C(=O)c2c([H])c([H])c(C(C([H])([H])[H])(C([H])([H])[H])C([H])([H])[H])c([H])c2[H])c([H])c1F


 26 27  0  0  0  0  0  0  0  0999 V2000
   -0.9375  -53.5498  -21.0441 C   0  0  0  0  0  0  0  0  0  0  0  0
   -1.7357  -54.4202  -20.5873 O   0  0  0  0  0  0  0  0  0  0  0  0
   -0.3137  -52.6654  -20.1557 N   0  0  0  0  0  0  0  0  0  0  0  0
    0.3625  -51.9528  -20.5702 H   0  0  0  0  0  0  0  0  0  0  0  0
   -0.1823  -53.2496  -25.2345 C   0  0  0  0  0  0  0  0  0  0  0  0
   -0.6625  -54.4156  -24.6689 C   0  0  0  0  0  0  0  0  0  0  0  0
   -0.9018  -54.5266  -23.3157 C   0  0  0  0  0  0  0  0  0  0  0  0
   -0.6650  -53.4637  -22.4709 C   0  0  0  0  0  0  0  0  0  0  0  0
   -0.1883  -52.2927  -22.9908 C   0  0  0  0  0  0  0  0  0  0  0  0
    0.0426  -52.2120  -24.3655 C   0  0  0  0  0  0  0  0  0  0  0  0
   -1.1675  -52.5364  -27.3376 C   0  0  0  0  0  0  0  0  0  0  0  0
    0.0786  -53.1210  -26.7032 C   0  0  0  0  0  0  0  0  0  0  0  0
    0.2836  -54.4933  -27.3007 C   0  0  0  0  0  0  0  0  0  0  0  0
    1.2991  -52.2676  -26.9822 C   0  0  0  0  0  0  0  0  0  0  0  0
   -0.4607  -52.6136  -18.7316 C   0  0  0  0  0  0  0  0  0  0  0  0
    0.2403  -51.4582  -18.1217 C   0  0  0  0  0  0  0  0  0  0  0  0
    1.5171  -51.1302  -18.6222 C   0  0  0  0  0  0  0  0  0  0  0  0
    2.2130  -50.0571  -18.1297 C   0  0  0  0  0  0  0  0  0  0  0  0
    1.7146  -49.2348  -17.1210 C   0  0  0  0  0  0  0  0  0  0  0  0
    0.4663  -49.5495  -16.6239 C   0  0  0  0  0  0  0  0  0  0  0  0
   -0.0686  -48.7773  -15.6442 F   0  0  0  0  0  0  0  0  0  0  0  0
   -0.2390  -50.6470  -17.1315 C   0  0  0  0  0  0  0  0  0  0  0  0
    2.4945  -48.1051  -16.6549 C   0  0  0  0  0  0  0  0  0  0  0  0
    3.0595  -48.2055  -15.5303 O   0  0  0  0  0  0  0  0  0  0  0  0
    2.6194  -46.9677  -17.4042 O   0  0  0  0  0  0  0  0  0  0  0  0
    3.3333  -46.8086  -18.1235 H   0  0  0  0  0  0  0  0  0  0  0  0
 11 12  1  0  0  0
 12 13  1  0  0  0
 12 14  1  0  0  0
 12  5  1  0  0  0
  5  6  2  0  0  0
  6  7  1  0  0  0
  7  8  2  0  0  0
  8  1  1  0  0  0
  1  2  2  0  0  0
  1  3  1  0  0  0
  3 15  1  0  0  0
 15 16  1  0  0  0
 16 17  2  0  0  0
 17 18  1  0  0  0
 18 19  2  0  0  0
 19 23  1  0  0  0
 23 24  2  0  0  0
 23 25  1  0  0  0
 19 20  1  0  0  0
 20 21  1  0  0  0
 20 22  2  0  0  0
  8  9  1  0  0  0
  9 10  2  0  0  0
 10  5  1  0  0  0
 22 16  1  0  0  0
  3  4  1  0  0  0
 25 26  1  0  0  0
M  END
> <minimizedAffinity>
-7.31654

> <CNNscore>
0.4914217293

> <CNNaffinity>
5.5569295883

> <CNN_VS>
2.7307958603

> <CNNaffinity_variance>
0.2447438687

$$$$
[H]OC(=O)c1c([H])c([H])c(C([H])([H])N([H])C(=O)c2c([H])c([H])c(C(C([H])([H])[H])(C([H])([H])[H])C([H])([H])[H])c([H])c2[H])c([H])c1F


 26 27  0  0  0  0  0  0  0  0999 V2000
   -1.0277  -53.5920  -20.4580 C   0  0  0  0  0  0  0  0  0  0  0  0
   -2.0410  -54.3514  -20.4628 O   0  0  0  0  0  0  0  0  0  0  0  0
   -0.6004  -53.0348  -19.2467 N   0  0  0  0  0  0  0  0  0  0  0  0
    0.2633  -52.4101  -19.2742 H   0  0  0  0  0  0  0  0  0  0  0  0
    1.0559  -52.6694  -24.0674 C   0  0  0  0  0  0  0  0  0  0  0  0
    0.0548  -53.6215  -24.0346 C   0  0  0  0  0  0  0  0  0  0  0  0
   -0.6189  -53.9337  -22.8729 C   0  0  0  0  0  0  0  0  0  0  0  0
   -0.3101  -53.2985  -21.6894 C   0  0  0  0  0  0  0  0  0  0  0  0
    0.6754  -52.3511  -21.6792 C   0  0  0  0  0  0  0  0  0  0  0  0
    1.3380  -52.0570  -22.8725 C   0  0  0  0  0  0  0  0  0  0  0  0
    1.1812  -53.1399  -26.4475 C   0  0  0  0  0  0  0  0  0  0  0  0
    1.7909  -52.3239  -25.3253 C   0  0  0  0  0  0  0  0  0  0  0  0
    3.2354  -52.7473  -25.1974 C   0  0  0  0  0  0  0  0  0  0  0  0
    1.7301  -50.8388  -25.6192 C   0  0  0  0  0  0  0  0  0  0  0  0
   -1.1802  -53.2208  -17.9500 C   0  0  0  0  0  0  0  0  0  0  0  0
   -1.1114  -52.0024  -17.1079 C   0  0  0  0  0  0  0  0  0  0  0  0
   -0.1340  -51.0389  -17.4314 C   0  0  0  0  0  0  0  0  0  0  0  0
   -0.0298  -49.8734  -16.7178 C   0  0  0  0  0  0  0  0  0  0  0  0
   -0.8666  -49.5691  -15.6459 C   0  0  0  0  0  0  0  0  0  0  0  0
   -1.8251  -50.5072  -15.3211 C   0  0  0  0  0  0  0  0  0  0  0  0
   -2.6703  -50.2581  -14.2888 F   0  0  0  0  0  0  0  0  0  0  0  0
   -1.9259  -51.6956  -16.0542 C   0  0  0  0  0  0  0  0  0  0  0  0
   -0.7146  -48.3109  -14.9419 C   0  0  0  0  0  0  0  0  0  0  0  0
   -1.3704  -47.3184  -15.3648 O   0  0  0  0  0  0  0  0  0  0  0  0
    0.1078  -48.1973  -13.8549 O   0  0  0  0  0  0  0  0  0  0  0  0
   -0.1645  -48.3886  -12.8845 H   0  0  0  0  0  0  0  0  0  0  0  0
 11 12  1  0  0  0
 12 13  1  0  0  0
 12 14  1  0  0  0
 12  5  1  0  0  0
  5  6  2  0  0  0
  6  7  1  0  0  0
  7  8  2  0  0  0
  8  1  1  0  0  0
  1  2  2  0  0  0
  1  3  1  0  0  0
  3 15  1  0  0  0
 15 16  1  0  0  0
 16 17  2  0  0  0
 17 18  1  0  0  0
 18 19  2  0  0  0
 19 23  1  0  0  0
 23 24  2  0  0  0
 23 25  1  0  0  0
 19 20  1  0  0  0
 20 21  1  0  0  0
 20 22  2  0  0  0
  8  9  1  0  0  0
  9 10  2  0  0  0
 10  5  1  0  0  0
 22 16  1  0  0  0
  3  4  1  0  0  0
 25 26  1  0  0  0
M  END
> <minimizedAffinity>
-7.10222

> <CNNscore>
0.4755802751

> <CNNaffinity>
5.2349619865

> <CNN_VS>
2.4896447659

> <CNNaffinity_variance>
0.2092356235

$$$$
[H]OC(=O)c1c([H])c([H])c(C([H])([H])N([H])C(=O)c2c([H])c([H])c(C(C([H])([H])[H])(C([H])([H])[H])C([H])([H])[H])c([H])c2[H])c([H])c1F


 26 27  0  0  0  0  0  0  0  0999 V2000
   -0.6360  -53.3588  -20.6194 C   0  0  0  0  0  0  0  0  0  0  0  0
   -1.3863  -54.3634  -20.7967 O   0  0  0  0  0  0  0  0  0  0  0  0
    0.1439  -52.8951  -21.6857 N   0  0  0  0  0  0  0  0  0  0  0  0
    0.7552  -52.0397  -21.5079 H   0  0  0  0  0  0  0  0  0  0  0  0
   -0.4090  -51.4081  -16.8294 C   0  0  0  0  0  0  0  0  0  0  0  0
   -1.2518  -52.4831  -17.0391 C   0  0  0  0  0  0  0  0  0  0  0  0
   -1.3397  -53.1152  -18.2612 C   0  0  0  0  0  0  0  0  0  0  0  0
   -0.5801  -52.6884  -19.3291 C   0  0  0  0  0  0  0  0  0  0  0  0
    0.2653  -51.6271  -19.1634 C   0  0  0  0  0  0  0  0  0  0  0  0
    0.3320  -51.0092  -17.9130 C   0  0  0  0  0  0  0  0  0  0  0  0
   -1.4593  -49.7370  -15.4129 C   0  0  0  0  0  0  0  0  0  0  0  0
   -0.3072  -50.7175  -15.5049 C   0  0  0  0  0  0  0  0  0  0  0  0
    0.9705  -49.9132  -15.4529 C   0  0  0  0  0  0  0  0  0  0  0  0
   -0.3226  -51.7051  -14.3560 C   0  0  0  0  0  0  0  0  0  0  0  0
    0.2066  -53.4267  -23.0145 C   0  0  0  0  0  0  0  0  0  0  0  0
    1.1192  -52.6624  -23.8984 C   0  0  0  0  0  0  0  0  0  0  0  0
    1.2309  -51.2740  -23.6786 C   0  0  0  0  0  0  0  0  0  0  0  0
    2.0774  -50.5065  -24.4353 C   0  0  0  0  0  0  0  0  0  0  0  0
    2.8686  -51.0367  -25.4525 C   0  0  0  0  0  0  0  0  0  0  0  0
    2.7644  -52.3946  -25.6758 C   0  0  0  0  0  0  0  0  0  0  0  0
    3.5176  -52.9634  -26.6512 F   0  0  0  0  0  0  0  0  0  0  0  0
    1.8977  -53.1726  -24.8992 C   0  0  0  0  0  0  0  0  0  0  0  0
    3.7559  -50.1727  -26.2061 C   0  0  0  0  0  0  0  0  0  0  0  0
    3.3637  -49.7711  -27.3370 O   0  0  0  0  0  0  0  0  0  0  0  0
    4.9762  -49.8002  -25.7133 O   0  0  0  0  0  0  0  0  0  0  0  0
    5.1481  -48.9875  -25.1114 H   0  0  0  0  0  0  0  0  0  0  0  0
 11 12  1  0  0  0
 12 13  1  0  0  0
 12 14  1  0  0  0
 12  5  1  0  0  0
  5  6  2  0  0  0
  6  7  1  0  0  0
  7  8  2  0  0  0
  8  1  1  0  0  0
  1  2  2  0  0  0
  1  3  1  0  0  0
  3 15  1  0  0  0
 15 16  1  0  0  0
 16 17  2  0  0  0
 17 18  1  0  0  0
 18 19  2  0  0  0
 19 23  1  0  0  0
 23 24  2  0  0  0
 23 25  1  0  0  0
 19 20  1  0  0  0
 20 21  1  0  0  0
 20 22  2  0  0  0
  8  9  1  0  0  0
  9 10  2  0  0  0
 10  5  1  0  0  0
 22 16  1  0  0  0
  3  4  1  0  0  0
 25 26  1  0  0  0
M  END
> <minimizedAffinity>
-6.88539

> <CNNscore>
0.4370239079

> <CNNaffinity>
5.3909616470

> <CNN_VS>
2.3559792042

> <CNNaffinity_variance>
0.2927593589

$$$$
[H]Oc1c([H])c(O[H])c([H])c([C@@]([H])(O[H])C([H])([H])N([H])[C@@]([H])(C([H])([H])[H])C([H])([H])c2c([H])c([H])c(OC([H])([H])[H])c([H])c2[H])c1[H]


 27 28  0  0  0  0  0  0  0  0999 V2000
    3.1497  -50.4757  -23.4374 C   0  0  0  0  0  0  0  0  0  0  0  0
    2.9974  -51.9524  -23.5430 C   0  0  0  0  0  0  0  0  0  0  0  0
    4.3128  -52.5482  -23.5534 O   0  0  0  0  0  0  0  0  0  0  0  0
    4.3718  -53.0628  -22.7323 H   0  0  0  0  0  0  0  0  0  0  0  0
    2.4042  -52.4297  -24.8324 C   0  0  0  0  0  0  0  0  0  0  0  0
    1.2307  -53.1185  -24.9192 C   0  0  0  0  0  0  0  0  0  0  0  0
    0.7096  -53.5442  -26.1461 C   0  0  0  0  0  0  0  0  0  0  0  0
   -0.4800  -54.2444  -26.2510 O   0  0  0  0  0  0  0  0  0  0  0  0
    1.4123  -53.2514  -27.2872 C   0  0  0  0  0  0  0  0  0  0  0  0
    2.5978  -52.5615  -27.2626 C   0  0  0  0  0  0  0  0  0  0  0  0
    3.2803  -52.2835  -28.4394 O   0  0  0  0  0  0  0  0  0  0  0  0
    3.0730  -52.1623  -26.0316 C   0  0  0  0  0  0  0  0  0  0  0  0
   -1.3218  -53.6573  -26.3627 H   0  0  0  0  0  0  0  0  0  0  0  0
    3.0190  -51.3904  -28.8840 H   0  0  0  0  0  0  0  0  0  0  0  0
    2.9164  -49.8294  -22.2287 N   0  0  0  0  0  0  0  0  0  0  0  0
    3.0312  -48.7848  -22.2447 H   0  0  0  0  0  0  0  0  0  0  0  0
    2.9996  -50.4349  -20.9841 C   0  0  0  0  0  0  0  0  0  0  0  0
    4.2011  -50.0043  -20.1926 C   0  0  0  0  0  0  0  0  0  0  0  0
    1.7511  -50.4357  -20.1449 C   0  0  0  0  0  0  0  0  0  0  0  0
   -0.7508  -53.7369  -21.3563 C   0  0  0  0  0  0  0  0  0  0  0  0
   -0.9170  -52.4738  -21.8843 C   0  0  0  0  0  0  0  0  0  0  0  0
   -0.1122  -51.4146  -21.4980 C   0  0  0  0  0  0  0  0  0  0  0  0
    0.8952  -51.5776  -20.5641 C   0  0  0  0  0  0  0  0  0  0  0  0
    1.0628  -52.8419  -20.0346 C   0  0  0  0  0  0  0  0  0  0  0  0
    0.2545  -53.8950  -20.4258 C   0  0  0  0  0  0  0  0  0  0  0  0
   -1.5895  -55.3007  -23.0527 C   0  0  0  0  0  0  0  0  0  0  0  0
   -1.5470  -54.8184  -21.7286 O   0  0  0  0  0  0  0  0  0  0  0  0
 26 27  1  0  0  0
 27 20  1  0  0  0
 20 21  2  0  0  0
 21 22  1  0  0  0
 22 23  2  0  0  0
 23 19  1  0  0  0
 19 17  1  0  0  0
 17 18  1  0  0  0
 17 15  1  0  0  0
 15  1  1  0  0  0
  1  2  1  0  0  0
  2  3  1  0  0  0
  2  5  1  0  0  0
  5  6  2  0  0  0
  6  7  1  0  0  0
  7  8  1  0  0  0
  7  9  2  0  0  0
  9 10  1  0  0  0
 10 11  1  0  0  0
 10 12  2  0  0  0
 23 24  1  0  0  0
 24 25  2  0  0  0
 25 20  1  0  0  0
 12  5  1  0  0  0
 15 16  1  0  0  0
  3  4  1  0  0  0
  8 13  1  0  0  0
 11 14  1  0  0  0
M  END
> <minimizedAffinity>
-6.78467

> <CNNscore>
0.6434345841

> <CNNaffinity>
5.5152921677

> <CNN_VS>
3.5487296581

> <CNNaffinity_variance>
0.0836929828

$$$$
[H]Oc1c([H])c(O[H])c([H])c([C@@]([H])(O[H])C([H])([H])N([H])[C@@]([H])(C([H])([H])[H])C([H])([H])c2c([H])c([H])c(OC([H])([H])[H])c([H])c2[H])c1[H]


 27 28  0  0  0  0  0  0  0  0999 V2000
    1.5144  -52.5758  -24.5476 C   0  0  0  0  0  0  0  0  0  0  0  0
    0.1292  -52.0891  -24.7913 C   0  0  0  0  0  0  0  0  0  0  0  0
   -0.7809  -52.8861  -24.0027 O   0  0  0  0  0  0  0  0  0  0  0  0
   -1.1612  -52.2769  -23.3496 H   0  0  0  0  0  0  0  0  0  0  0  0
   -0.3699  -52.2954  -26.1879 C   0  0  0  0  0  0  0  0  0  0  0  0
    0.4443  -52.4893  -27.2642 C   0  0  0  0  0  0  0  0  0  0  0  0
   -0.0640  -52.6813  -28.5537 C   0  0  0  0  0  0  0  0  0  0  0  0
    0.7491  -52.8791  -29.6565 O   0  0  0  0  0  0  0  0  0  0  0  0
   -1.4251  -52.6720  -28.7236 C   0  0  0  0  0  0  0  0  0  0  0  0
   -2.2941  -52.4821  -27.6791 C   0  0  0  0  0  0  0  0  0  0  0  0
   -3.6664  -52.4797  -27.8906 O   0  0  0  0  0  0  0  0  0  0  0  0
   -1.7482  -52.2968  -26.4268 C   0  0  0  0  0  0  0  0  0  0  0  0
    0.9817  -53.8654  -29.8540 H   0  0  0  0  0  0  0  0  0  0  0  0
   -4.1126  -53.4060  -27.8105 H   0  0  0  0  0  0  0  0  0  0  0  0
    2.4612  -51.7401  -23.9658 N   0  0  0  0  0  0  0  0  0  0  0  0
    3.3247  -51.5665  -24.5393 H   0  0  0  0  0  0  0  0  0  0  0  0
    2.5749  -51.5089  -22.6034 C   0  0  0  0  0  0  0  0  0  0  0  0
    3.9940  -51.3237  -22.1482 C   0  0  0  0  0  0  0  0  0  0  0  0
    1.6607  -50.4706  -22.0126 C   0  0  0  0  0  0  0  0  0  0  0  0
   -0.2720  -52.1389  -18.5332 C   0  0  0  0  0  0  0  0  0  0  0  0
   -0.2621  -52.8036  -19.7415 C   0  0  0  0  0  0  0  0  0  0  0  0
    0.3607  -52.2699  -20.8577 C   0  0  0  0  0  0  0  0  0  0  0  0
    1.0012  -51.0447  -20.8094 C   0  0  0  0  0  0  0  0  0  0  0  0
    0.9921  -50.3780  -19.6002 C   0  0  0  0  0  0  0  0  0  0  0  0
    0.3675  -50.9180  -18.4894 C   0  0  0  0  0  0  0  0  0  0  0  0
   -1.3893  -51.8263  -16.3697 C   0  0  0  0  0  0  0  0  0  0  0  0
   -0.8913  -52.6546  -17.3962 O   0  0  0  0  0  0  0  0  0  0  0  0
 26 27  1  0  0  0
 27 20  1  0  0  0
 20 21  2  0  0  0
 21 22  1  0  0  0
 22 23  2  0  0  0
 23 19  1  0  0  0
 19 17  1  0  0  0
 17 18  1  0  0  0
 17 15  1  0  0  0
 15  1  1  0  0  0
  1  2  1  0  0  0
  2  3  1  0  0  0
  2  5  1  0  0  0
  5  6  2  0  0  0
  6  7  1  0  0  0
  7  8  1  0  0  0
  7  9  2  0  0  0
  9 10  1  0  0  0
 10 11  1  0  0  0
 10 12  2  0  0  0
 23 24  1  0  0  0
 24 25  2  0  0  0
 25 20  1  0  0  0
 12  5  1  0  0  0
 15 16  1  0  0  0
  3  4  1  0  0  0
  8 13  1  0  0  0
 11 14  1  0  0  0
M  END
> <minimizedAffinity>
-7.75020

> <CNNscore>
0.5628383160

> <CNNaffinity>
5.6317696571

> <CNN_VS>
3.1697757244

> <CNNaffinity_variance>
0.0454097874

$$$$
[H]Oc1c([H])c(O[H])c([H])c([C@@]([H])(O[H])C([H])([H])N([H])[C@@]([H])(C([H])([H])[H])C([H])([H])c2c([H])c([H])c(OC([H])([H])[H])c([H])c2[H])c1[H]


 27 28  0  0  0  0  0  0  0  0999 V2000
    1.5298  -52.5044  -24.3573 C   0  0  0  0  0  0  0  0  0  0  0  0
    0.1253  -52.0543  -24.5571 C   0  0  0  0  0  0  0  0  0  0  0  0
   -0.7396  -52.8827  -23.7502 O   0  0  0  0  0  0  0  0  0  0  0  0
   -1.1176  -52.2895  -23.0811 H   0  0  0  0  0  0  0  0  0  0  0  0
   -0.4077  -52.2631  -25.9408 C   0  0  0  0  0  0  0  0  0  0  0  0
   -1.7358  -52.2747  -26.2491 C   0  0  0  0  0  0  0  0  0  0  0  0
   -2.1918  -52.4705  -27.5574 C   0  0  0  0  0  0  0  0  0  0  0  0
   -3.5363  -52.4851  -27.8866 O   0  0  0  0  0  0  0  0  0  0  0  0
   -1.2619  -52.6546  -28.5489 C   0  0  0  0  0  0  0  0  0  0  0  0
    0.0871  -52.6527  -28.2997 C   0  0  0  0  0  0  0  0  0  0  0  0
    0.9982  -52.8420  -29.3302 O   0  0  0  0  0  0  0  0  0  0  0  0
    0.4901  -52.4563  -26.9960 C   0  0  0  0  0  0  0  0  0  0  0  0
   -3.9334  -51.5651  -28.1350 H   0  0  0  0  0  0  0  0  0  0  0  0
    1.3022  -51.9738  -29.7965 H   0  0  0  0  0  0  0  0  0  0  0  0
    2.4528  -51.6725  -23.7333 N   0  0  0  0  0  0  0  0  0  0  0  0
    3.3300  -51.4802  -24.2793 H   0  0  0  0  0  0  0  0  0  0  0  0
    2.5271  -51.4675  -22.3640 C   0  0  0  0  0  0  0  0  0  0  0  0
    3.9341  -51.3165  -21.8610 C   0  0  0  0  0  0  0  0  0  0  0  0
    1.6132  -50.4230  -21.7835 C   0  0  0  0  0  0  0  0  0  0  0  0
   -0.3133  -52.0650  -18.2883 C   0  0  0  0  0  0  0  0  0  0  0  0
    0.3249  -50.8430  -18.2534 C   0  0  0  0  0  0  0  0  0  0  0  0
    0.9408  -50.3142  -19.3758 C   0  0  0  0  0  0  0  0  0  0  0  0
    0.9427  -50.9898  -20.5830 C   0  0  0  0  0  0  0  0  0  0  0  0
    0.3039  -52.2134  -20.6193 C   0  0  0  0  0  0  0  0  0  0  0  0
   -0.3091  -52.7350  -19.4935 C   0  0  0  0  0  0  0  0  0  0  0  0
   -1.6690  -51.8354  -16.2544 C   0  0  0  0  0  0  0  0  0  0  0  0
   -0.9401  -52.6181  -17.1732 O   0  0  0  0  0  0  0  0  0  0  0  0
 26 27  1  0  0  0
 27 20  1  0  0  0
 20 21  2  0  0  0
 21 22  1  0  0  0
 22 23  2  0  0  0
 23 19  1  0  0  0
 19 17  1  0  0  0
 17 18  1  0  0  0
 17 15  1  0  0  0
 15  1  1  0  0  0
  1  2  1  0  0  0
  2  3  1  0  0  0
  2  5  1  0  0  0
  5  6  2  0  0  0
  6  7  1  0  0  0
  7  8  1  0  0  0
  7  9  2  0  0  0
  9 10  1  0  0  0
 10 11  1  0  0  0
 10 12  2  0  0  0
 23 24  1  0  0  0
 24 25  2  0  0  0
 25 20  1  0  0  0
 12  5  1  0  0  0
 15 16  1  0  0  0
  3  4  1  0  0  0
  8 13  1  0  0  0
 11 14  1  0  0  0
M  END
> <minimizedAffinity>
-7.66713

> <CNNscore>
0.5479992628

> <CNNaffinity>
5.5974726677

> <CNN_VS>
3.0674109459

> <CNNaffinity_variance>
0.0427396186

$$$$
[H]Oc1c([H])c(O[H])c([H])c([C@@]([H])(O[H])C([H])([H])N([H])[C@@]([H])(C([H])([H])[H])C([H])([H])c2c([H])c([H])c(OC([H])([H])[H])c([H])c2[H])c1[H]


 27 28  0  0  0  0  0  0  0  0999 V2000
    0.0365  -53.2069  -23.7932 C   0  0  0  0  0  0  0  0  0  0  0  0
    0.7893  -52.5830  -24.9153 C   0  0  0  0  0  0  0  0  0  0  0  0
    0.9469  -51.1755  -24.6336 O   0  0  0  0  0  0  0  0  0  0  0  0
    1.9003  -51.0401  -24.5106 H   0  0  0  0  0  0  0  0  0  0  0  0
    0.0690  -52.5824  -26.2282 C   0  0  0  0  0  0  0  0  0  0  0  0
    0.6880  -52.7310  -27.4338 C   0  0  0  0  0  0  0  0  0  0  0  0
   -0.0238  -52.7275  -28.6385 C   0  0  0  0  0  0  0  0  0  0  0  0
    0.5897  -52.8770  -29.8704 O   0  0  0  0  0  0  0  0  0  0  0  0
   -1.3855  -52.5690  -28.5881 C   0  0  0  0  0  0  0  0  0  0  0  0
   -2.0634  -52.4154  -27.4054 C   0  0  0  0  0  0  0  0  0  0  0  0
   -3.4430  -52.2580  -27.3947 O   0  0  0  0  0  0  0  0  0  0  0  0
   -1.3209  -52.4251  -26.2438 C   0  0  0  0  0  0  0  0  0  0  0  0
    0.6787  -53.8525  -30.1964 H   0  0  0  0  0  0  0  0  0  0  0  0
   -3.9732  -53.1405  -27.3342 H   0  0  0  0  0  0  0  0  0  0  0  0
   -0.2642  -52.4705  -22.6528 N   0  0  0  0  0  0  0  0  0  0  0  0
    0.1752  -51.5171  -22.6011 H   0  0  0  0  0  0  0  0  0  0  0  0
   -0.6787  -53.0192  -21.4488 C   0  0  0  0  0  0  0  0  0  0  0  0
   -1.5858  -54.2043  -21.6165 C   0  0  0  0  0  0  0  0  0  0  0  0
    0.3859  -53.2746  -20.4171 C   0  0  0  0  0  0  0  0  0  0  0  0
   -0.4542  -50.8954  -16.9160 C   0  0  0  0  0  0  0  0  0  0  0  0
    0.4085  -50.4551  -17.8976 C   0  0  0  0  0  0  0  0  0  0  0  0
    0.6762  -51.2170  -19.0230 C   0  0  0  0  0  0  0  0  0  0  0  0
    0.0888  -52.4552  -19.2119 C   0  0  0  0  0  0  0  0  0  0  0  0
   -0.7753  -52.8973  -18.2298 C   0  0  0  0  0  0  0  0  0  0  0  0
   -1.0375  -52.1300  -17.1082 C   0  0  0  0  0  0  0  0  0  0  0  0
   -0.7232  -48.7378  -15.7760 C   0  0  0  0  0  0  0  0  0  0  0  0
   -0.7398  -50.1476  -15.7751 O   0  0  0  0  0  0  0  0  0  0  0  0
 26 27  1  0  0  0
 27 20  1  0  0  0
 20 21  2  0  0  0
 21 22  1  0  0  0
 22 23  2  0  0  0
 23 19  1  0  0  0
 19 17  1  0  0  0
 17 18  1  0  0  0
 17 15  1  0  0  0
 15  1  1  0  0  0
  1  2  1  0  0  0
  2  3  1  0  0  0
  2  5  1  0  0  0
  5  6  2  0  0  0
  6  7  1  0  0  0
  7  8  1  0  0  0
  7  9  2  0  0  0
  9 10  1  0  0  0
 10 11  1  0  0  0
 10 12  2  0  0  0
 23 24  1  0  0  0
 24 25  2  0  0  0
 25 20  1  0  0  0
 12  5  1  0  0  0
 15 16  1  0  0  0
  3  4  1  0  0  0
  8 13  1  0  0  0
 11 14  1  0  0  0
M  END
> <minimizedAffinity>
-7.72378

> <CNNscore>
0.5330290794

> <CNNaffinity>
5.5899834633

> <CNN_VS>
2.9796237946

> <CNNaffinity_variance>
0.0337919667

$$$$
[H]Oc1c([H])c(O[H])c([H])c([C@@]([H])(O[H])C([H])([H])N([H])[C@@]([H])(C([H])([H])[H])C([H])([H])c2c([H])c([H])c(OC([H])([H])[H])c([H])c2[H])c1[H]


 27 28  0  0  0  0  0  0  0  0999 V2000
    3.4544  -51.2361  -25.9362 C   0  0  0  0  0  0  0  0  0  0  0  0
    3.1402  -52.3915  -26.8202 C   0  0  0  0  0  0  0  0  0  0  0  0
    3.3940  -52.0033  -28.1877 O   0  0  0  0  0  0  0  0  0  0  0  0
    4.1365  -52.5555  -28.4813 H   0  0  0  0  0  0  0  0  0  0  0  0
    1.6954  -52.7842  -26.8468 C   0  0  0  0  0  0  0  0  0  0  0  0
    1.0607  -53.4140  -25.8175 C   0  0  0  0  0  0  0  0  0  0  0  0
   -0.2932  -53.7612  -25.8823 C   0  0  0  0  0  0  0  0  0  0  0  0
   -0.9519  -54.4009  -24.8463 O   0  0  0  0  0  0  0  0  0  0  0  0
   -0.9895  -53.4515  -27.0229 C   0  0  0  0  0  0  0  0  0  0  0  0
   -0.4052  -52.8184  -28.0905 C   0  0  0  0  0  0  0  0  0  0  0  0
   -1.1433  -52.5208  -29.2284 O   0  0  0  0  0  0  0  0  0  0  0  0
    0.9306  -52.4956  -27.9820 C   0  0  0  0  0  0  0  0  0  0  0  0
   -1.3872  -53.7715  -24.1533 H   0  0  0  0  0  0  0  0  0  0  0  0
   -1.6035  -51.5980  -29.2098 H   0  0  0  0  0  0  0  0  0  0  0  0
    4.0923  -51.4364  -24.7171 N   0  0  0  0  0  0  0  0  0  0  0  0
    4.9714  -52.0112  -24.7557 H   0  0  0  0  0  0  0  0  0  0  0  0
    3.4705  -51.3518  -23.4807 C   0  0  0  0  0  0  0  0  0  0  0  0
    4.3569  -50.7896  -22.4067 C   0  0  0  0  0  0  0  0  0  0  0  0
    2.0995  -50.7333  -23.4515 C   0  0  0  0  0  0  0  0  0  0  0  0
   -0.1202  -52.4689  -20.1827 C   0  0  0  0  0  0  0  0  0  0  0  0
    0.2943  -51.1539  -20.1557 C   0  0  0  0  0  0  0  0  0  0  0  0
    1.0042  -50.5955  -21.2060 C   0  0  0  0  0  0  0  0  0  0  0  0
    1.3290  -51.3337  -22.3299 C   0  0  0  0  0  0  0  0  0  0  0  0
    0.9146  -52.6506  -22.3583 C   0  0  0  0  0  0  0  0  0  0  0  0
    0.2057  -53.2011  -21.3048 C   0  0  0  0  0  0  0  0  0  0  0  0
   -0.8602  -52.5014  -17.8422 C   0  0  0  0  0  0  0  0  0  0  0  0
   -0.8354  -53.0536  -19.1392 O   0  0  0  0  0  0  0  0  0  0  0  0
 26 27  1  0  0  0
 27 20  1  0  0  0
 20 21  2  0  0  0
 21 22  1  0  0  0
 22 23  2  0  0  0
 23 19  1  0  0  0
 19 17  1  0  0  0
 17 18  1  0  0  0
 17 15  1  0  0  0
 15  1  1  0  0  0
  1  2  1  0  0  0
  2  3  1  0  0  0
  2  5  1  0  0  0
  5  6  2  0  0  0
  6  7  1  0  0  0
  7  8  1  0  0  0
  7  9  2  0  0  0
  9 10  1  0  0  0
 10 11  1  0  0  0
 10 12  2  0  0  0
 23 24  1  0  0  0
 24 25  2  0  0  0
 25 20  1  0  0  0
 12  5  1  0  0  0
 15 16  1  0  0  0
  3  4  1  0  0  0
  8 13  1  0  0  0
 11 14  1  0  0  0
M  END
> <minimizedAffinity>
-6.44398

> <CNNscore>
0.5013680458

> <CNNaffinity>
5.8605089188

> <CNN_VS>
2.9382719994

> <CNNaffinity_variance>
0.0883366540

$$$$
[H]Oc1c([H])c(O[H])c([H])c([C@@]([H])(O[H])C([H])([H])N([H])[C@@]([H])(C([H])([H])[H])C([H])([H])c2c([H])c([H])c(OC([H])([H])[H])c([H])c2[H])c1[H]


 27 28  0  0  0  0  0  0  0  0999 V2000
   -0.3692  -52.5142  -23.5792 C   0  0  0  0  0  0  0  0  0  0  0  0
    0.5136  -52.3543  -24.7666 C   0  0  0  0  0  0  0  0  0  0  0  0
    1.0437  -51.0110  -24.7649 O   0  0  0  0  0  0  0  0  0  0  0  0
    1.9996  -51.1088  -24.6266 H   0  0  0  0  0  0  0  0  0  0  0  0
   -0.1910  -52.4338  -26.0855 C   0  0  0  0  0  0  0  0  0  0  0  0
   -1.5414  -52.3169  -26.2330 C   0  0  0  0  0  0  0  0  0  0  0  0
   -2.1601  -52.3945  -27.4857 C   0  0  0  0  0  0  0  0  0  0  0  0
   -3.5294  -52.2780  -27.6522 O   0  0  0  0  0  0  0  0  0  0  0  0
   -1.3702  -52.5942  -28.5893 C   0  0  0  0  0  0  0  0  0  0  0  0
   -0.0067  -52.7188  -28.5033 C   0  0  0  0  0  0  0  0  0  0  0  0
    0.7597  -52.9197  -29.6436 O   0  0  0  0  0  0  0  0  0  0  0  0
    0.5590  -52.6360  -27.2489 C   0  0  0  0  0  0  0  0  0  0  0  0
   -3.8687  -51.3149  -27.8044 H   0  0  0  0  0  0  0  0  0  0  0  0
    1.0843  -52.0528  -30.0983 H   0  0  0  0  0  0  0  0  0  0  0  0
    0.1754  -52.5778  -22.3015 N   0  0  0  0  0  0  0  0  0  0  0  0
    1.2232  -52.6480  -22.2593 H   0  0  0  0  0  0  0  0  0  0  0  0
   -0.5119  -52.9998  -21.1736 C   0  0  0  0  0  0  0  0  0  0  0  0
   -1.5778  -54.0148  -21.4721 C   0  0  0  0  0  0  0  0  0  0  0  0
    0.3170  -53.3968  -19.9827 C   0  0  0  0  0  0  0  0  0  0  0  0
   -0.6095  -50.7282  -16.7200 C   0  0  0  0  0  0  0  0  0  0  0  0
   -1.2412  -51.9463  -16.8576 C   0  0  0  0  0  0  0  0  0  0  0  0
   -0.9420  -52.8045  -17.9029 C   0  0  0  0  0  0  0  0  0  0  0  0
    0.0052  -52.4767  -18.8564 C   0  0  0  0  0  0  0  0  0  0  0  0
    0.6385  -51.2573  -18.7199 C   0  0  0  0  0  0  0  0  0  0  0  0
    0.3339  -50.4054  -17.6725 C   0  0  0  0  0  0  0  0  0  0  0  0
   -1.1610  -50.2943  -14.3675 C   0  0  0  0  0  0  0  0  0  0  0  0
   -0.8927  -49.8476  -15.6776 O   0  0  0  0  0  0  0  0  0  0  0  0
 26 27  1  0  0  0
 27 20  1  0  0  0
 20 21  2  0  0  0
 21 22  1  0  0  0
 22 23  2  0  0  0
 23 19  1  0  0  0
 19 17  1  0  0  0
 17 18  1  0  0  0
 17 15  1  0  0  0
 15  1  1  0  0  0
  1  2  1  0  0  0
  2  3  1  0  0  0
  2  5  1  0  0  0
  5  6  2  0  0  0
  6  7  1  0  0  0
  7  8  1  0  0  0
  7  9  2  0  0  0
  9 10  1  0  0  0
 10 11  1  0  0  0
 10 12  2  0  0  0
 23 24  1  0  0  0
 24 25  2  0  0  0
 25 20  1  0  0  0
 12  5  1  0  0  0
 15 16  1  0  0  0
  3  4  1  0  0  0
  8 13  1  0  0  0
 11 14  1  0  0  0
M  END
> <minimizedAffinity>
-7.72622

> <CNNscore>
0.4987761676

> <CNNaffinity>
5.5003747940

> <CNN_VS>
2.7434558868

> <CNNaffinity_variance>
0.0193755645

$$$$
[H]Oc1c([H])c(O[H])c([H])c([C@@]([H])(O[H])C([H])([H])N([H])[C@@]([H])(C([H])([H])[H])C([H])([H])c2c([H])c([H])c(OC([H])([H])[H])c([H])c2[H])c1[H]


 27 28  0  0  0  0  0  0  0  0999 V2000
    3.1205  -51.7373  -26.1679 C   0  0  0  0  0  0  0  0  0  0  0  0
    2.6994  -52.6493  -27.2661 C   0  0  0  0  0  0  0  0  0  0  0  0
    3.2680  -52.1684  -28.5033 O   0  0  0  0  0  0  0  0  0  0  0  0
    3.8986  -52.8515  -28.7825 H   0  0  0  0  0  0  0  0  0  0  0  0
    1.2293  -52.6483  -27.5512 C   0  0  0  0  0  0  0  0  0  0  0  0
    0.6848  -53.0570  -28.7325 C   0  0  0  0  0  0  0  0  0  0  0  0
   -0.6962  -53.0426  -28.9569 C   0  0  0  0  0  0  0  0  0  0  0  0
   -1.2645  -53.4540  -30.1503 O   0  0  0  0  0  0  0  0  0  0  0  0
   -1.5139  -52.6014  -27.9477 C   0  0  0  0  0  0  0  0  0  0  0  0
   -1.0243  -52.1783  -26.7381 C   0  0  0  0  0  0  0  0  0  0  0  0
   -1.8840  -51.7389  -25.7402 O   0  0  0  0  0  0  0  0  0  0  0  0
    0.3427  -52.2099  -26.5620 C   0  0  0  0  0  0  0  0  0  0  0  0
   -1.5037  -54.4574  -30.1950 H   0  0  0  0  0  0  0  0  0  0  0  0
   -2.2135  -52.4801  -25.1033 H   0  0  0  0  0  0  0  0  0  0  0  0
    4.2504  -52.0241  -25.4100 N   0  0  0  0  0  0  0  0  0  0  0  0
    4.8840  -52.7639  -25.8047 H   0  0  0  0  0  0  0  0  0  0  0  0
    4.3683  -51.7795  -24.0503 C   0  0  0  0  0  0  0  0  0  0  0  0
    5.7895  -51.5995  -23.5996 C   0  0  0  0  0  0  0  0  0  0  0  0
    3.4624  -50.7287  -23.4687 C   0  0  0  0  0  0  0  0  0  0  0  0
    0.6018  -52.6670  -20.8832 C   0  0  0  0  0  0  0  0  0  0  0  0
    1.7722  -52.1299  -20.3900 C   0  0  0  0  0  0  0  0  0  0  0  0
    2.6893  -51.5050  -21.2190 C   0  0  0  0  0  0  0  0  0  0  0  0
    2.4709  -51.3921  -22.5804 C   0  0  0  0  0  0  0  0  0  0  0  0
    1.2993  -51.9294  -23.0756 C   0  0  0  0  0  0  0  0  0  0  0  0
    0.3880  -52.5522  -22.2407 C   0  0  0  0  0  0  0  0  0  0  0  0
   -1.5811  -53.7434  -20.5621 C   0  0  0  0  0  0  0  0  0  0  0  0
   -0.3364  -53.3002  -20.0701 O   0  0  0  0  0  0  0  0  0  0  0  0
 26 27  1  0  0  0
 27 20  1  0  0  0
 20 21  2  0  0  0
 21 22  1  0  0  0
 22 23  2  0  0  0
 23 19  1  0  0  0
 19 17  1  0  0  0
 17 18  1  0  0  0
 17 15  1  0  0  0
 15  1  1  0  0  0
  1  2  1  0  0  0
  2  3  1  0  0  0
  2  5  1  0  0  0
  5  6  2  0  0  0
  6  7  1  0  0  0
  7  8  1  0  0  0
  7  9  2  0  0  0
  9 10  1  0  0  0
 10 11  1  0  0  0
 10 12  2  0  0  0
 23 24  1  0  0  0
 24 25  2  0  0  0
 25 20  1  0  0  0
 12  5  1  0  0  0
 15 16  1  0  0  0
  3  4  1  0  0  0
  8 13  1  0  0  0
 11 14  1  0  0  0
M  END
> <minimizedAffinity>
-6.91357

> <CNNscore>
0.4832525551

> <CNNaffinity>
5.7866039276

> <CNN_VS>
2.7963912487

> <CNNaffinity_variance>
0.2632228732

$$$$
[H]Oc1c([H])c(O[H])c([H])c([C@@]([H])(O[H])C([H])([H])N([H])[C@@]([H])(C([H])([H])[H])C([H])([H])c2c([H])c([H])c(OC([H])([H])[H])c([H])c2[H])c1[H]


 27 28  0  0  0  0  0  0  0  0999 V2000
   -0.4514  -52.7331  -23.7877 C   0  0  0  0  0  0  0  0  0  0  0  0
    0.4029  -52.4842  -24.9806 C   0  0  0  0  0  0  0  0  0  0  0  0
    0.8820  -51.1230  -24.9241 O   0  0  0  0  0  0  0  0  0  0  0  0
    1.8432  -51.1903  -24.8064 H   0  0  0  0  0  0  0  0  0  0  0  0
   -0.3222  -52.5291  -26.2900 C   0  0  0  0  0  0  0  0  0  0  0  0
   -1.6767  -52.4309  -26.4115 C   0  0  0  0  0  0  0  0  0  0  0  0
   -2.3148  -52.4748  -27.6560 C   0  0  0  0  0  0  0  0  0  0  0  0
   -3.6885  -52.3766  -27.7961 O   0  0  0  0  0  0  0  0  0  0  0  0
   -1.5402  -52.6211  -28.7786 C   0  0  0  0  0  0  0  0  0  0  0  0
   -0.1736  -52.7247  -28.7191 C   0  0  0  0  0  0  0  0  0  0  0  0
    0.5770  -52.8713  -29.8781 O   0  0  0  0  0  0  0  0  0  0  0  0
    0.4116  -52.6765  -27.4718 C   0  0  0  0  0  0  0  0  0  0  0  0
   -4.0467  -51.4149  -27.9082 H   0  0  0  0  0  0  0  0  0  0  0  0
    0.8791  -51.9832  -30.3065 H   0  0  0  0  0  0  0  0  0  0  0  0
    0.0958  -53.2808  -22.6328 N   0  0  0  0  0  0  0  0  0  0  0  0
    0.6245  -54.1795  -22.7649 H   0  0  0  0  0  0  0  0  0  0  0  0
   -0.3560  -53.0200  -21.3481 C   0  0  0  0  0  0  0  0  0  0  0  0
   -1.4766  -53.9223  -20.9173 C   0  0  0  0  0  0  0  0  0  0  0  0
    0.6900  -52.8804  -20.2760 C   0  0  0  0  0  0  0  0  0  0  0  0
    2.1975  -48.8375  -20.3589 C   0  0  0  0  0  0  0  0  0  0  0  0
    0.8811  -49.1230  -20.6544 C   0  0  0  0  0  0  0  0  0  0  0  0
    0.3960  -50.4201  -20.6249 C   0  0  0  0  0  0  0  0  0  0  0  0
    1.2122  -51.4879  -20.2973 C   0  0  0  0  0  0  0  0  0  0  0  0
    2.5306  -51.2035  -20.0012 C   0  0  0  0  0  0  0  0  0  0  0  0
    3.0076  -49.9047  -20.0328 C   0  0  0  0  0  0  0  0  0  0  0  0
    3.5100  -47.0307  -19.3392 C   0  0  0  0  0  0  0  0  0  0  0  0
    2.7093  -47.5414  -20.3813 O   0  0  0  0  0  0  0  0  0  0  0  0
 26 27  1  0  0  0
 27 20  1  0  0  0
 20 21  2  0  0  0
 21 22  1  0  0  0
 22 23  2  0  0  0
 23 19  1  0  0  0
 19 17  1  0  0  0
 17 18  1  0  0  0
 17 15  1  0  0  0
 15  1  1  0  0  0
  1  2  1  0  0  0
  2  3  1  0  0  0
  2  5  1  0  0  0
  5  6  2  0  0  0
  6  7  1  0  0  0
  7  8  1  0  0  0
  7  9  2  0  0  0
  9 10  1  0  0  0
 10 11  1  0  0  0
 10 12  2  0  0  0
 23 24  1  0  0  0
 24 25  2  0  0  0
 25 20  1  0  0  0
 12  5  1  0  0  0
 15 16  1  0  0  0
  3  4  1  0  0  0
  8 13  1  0  0  0
 11 14  1  0  0  0
M  END
> <minimizedAffinity>
-7.58077

> <CNNscore>
0.4460440278

> <CNNaffinity>
5.5016860962

> <CNN_VS>
2.4539942741

> <CNNaffinity_variance>
0.2104598731

$$$$
[H]Oc1c([H])c(O[H])c([H])c([C@@]([H])(O[H])C([H])([H])N([H])[C@@]([H])(C([H])([H])[H])C([H])([H])c2c([H])c([H])c(OC([H])([H])[H])c([H])c2[H])c1[H]


 27 28  0  0  0  0  0  0  0  0999 V2000
    1.6267  -51.7454  -24.9710 C   0  0  0  0  0  0  0  0  0  0  0  0
    0.1554  -51.9648  -24.9248 C   0  0  0  0  0  0  0  0  0  0  0  0
   -0.1016  -53.1935  -24.2109 O   0  0  0  0  0  0  0  0  0  0  0  0
   -0.5667  -52.9309  -23.4003 H   0  0  0  0  0  0  0  0  0  0  0  0
   -0.4824  -52.2125  -26.2568 C   0  0  0  0  0  0  0  0  0  0  0  0
   -1.8304  -52.2490  -26.4580 C   0  0  0  0  0  0  0  0  0  0  0  0
   -2.3857  -52.4810  -27.7212 C   0  0  0  0  0  0  0  0  0  0  0  0
   -3.7517  -52.5213  -27.9419 O   0  0  0  0  0  0  0  0  0  0  0  0
   -1.5347  -52.6754  -28.7793 C   0  0  0  0  0  0  0  0  0  0  0  0
   -0.1703  -52.6496  -28.6384 C   0  0  0  0  0  0  0  0  0  0  0  0
    0.6590  -52.8503  -29.7338 O   0  0  0  0  0  0  0  0  0  0  0  0
    0.3318  -52.4179  -27.3756 C   0  0  0  0  0  0  0  0  0  0  0  0
   -4.1812  -51.6126  -28.1780 H   0  0  0  0  0  0  0  0  0  0  0  0
    0.9118  -51.9891  -30.2417 H   0  0  0  0  0  0  0  0  0  0  0  0
    2.4798  -52.5358  -24.2089 N   0  0  0  0  0  0  0  0  0  0  0  0
    2.1827  -53.5368  -24.0891 H   0  0  0  0  0  0  0  0  0  0  0  0
    3.3761  -52.0473  -23.2705 C   0  0  0  0  0  0  0  0  0  0  0  0
    4.8096  -52.3415  -23.6080 C   0  0  0  0  0  0  0  0  0  0  0  0
    3.1890  -50.6206  -22.8318 C   0  0  0  0  0  0  0  0  0  0  0  0
    1.0008  -50.6129  -19.1120 C   0  0  0  0  0  0  0  0  0  0  0  0
    1.8734  -51.6311  -19.4338 C   0  0  0  0  0  0  0  0  0  0  0  0
    2.5782  -51.6325  -20.6263 C   0  0  0  0  0  0  0  0  0  0  0  0
    2.4375  -50.6108  -21.5483 C   0  0  0  0  0  0  0  0  0  0  0  0
    1.5642  -49.5905  -21.2273 C   0  0  0  0  0  0  0  0  0  0  0  0
    0.8636  -49.5965  -20.0338 C   0  0  0  0  0  0  0  0  0  0  0  0
   -0.3996  -51.7216  -17.4279 C   0  0  0  0  0  0  0  0  0  0  0  0
    0.2805  -50.5885  -17.9192 O   0  0  0  0  0  0  0  0  0  0  0  0
 26 27  1  0  0  0
 27 20  1  0  0  0
 20 21  2  0  0  0
 21 22  1  0  0  0
 22 23  2  0  0  0
 23 19  1  0  0  0
 19 17  1  0  0  0
 17 18  1  0  0  0
 17 15  1  0  0  0
 15  1  1  0  0  0
  1  2  1  0  0  0
  2  3  1  0  0  0
  2  5  1  0  0  0
  5  6  2  0  0  0
  6  7  1  0  0  0
  7  8  1  0  0  0
  7  9  2  0  0  0
  9 10  1  0  0  0
 10 11  1  0  0  0
 10 12  2  0  0  0
 23 24  1  0  0  0
 24 25  2  0  0  0
 25 20  1  0  0  0
 12  5  1  0  0  0
 15 16  1  0  0  0
  3  4  1  0  0  0
  8 13  1  0  0  0
 11 14  1  0  0  0
M  END
> <minimizedAffinity>
-7.39774

> <CNNscore>
0.4437513053

> <CNNaffinity>
5.3908905983

> <CNN_VS>
2.3922147751

> <CNNaffinity_variance>
0.0568676777

$$$$
[H]c1nc(N2C([H])([H])C([H])([H])C(N3C([H])([H])C([H])([H])OC([H])([H])C3([H])[H])(C([H])(C([H])([H])[H])C([H])([H])[H])C([H])([H])C2([H])[H])c([H])c2c1C(=O)c1c(n([H])c3c([H])c(C#N)c([H])c([H])c13)C2(C([H])([H])[H])C([H])([H])[H]


 38 43  0  0  0  0  0  0  0  0999 V2000
    0.2014  -51.6218  -17.9673 C   0  0  0  0  0  0  0  0  0  0  0  0
    0.8039  -51.0551  -19.0599 C   0  0  0  0  0  0  0  0  0  0  0  0
    0.5669  -51.5309  -20.3569 C   0  0  0  0  0  0  0  0  0  0  0  0
   -0.2936  -52.5890  -20.4948 C   0  0  0  0  0  0  0  0  0  0  0  0
   -0.8895  -53.1439  -19.3751 C   0  0  0  0  0  0  0  0  0  0  0  0
   -0.6349  -52.6577  -18.1508 N   0  0  0  0  0  0  0  0  0  0  0  0
   -0.5751  -53.1211  -21.8178 C   0  0  0  0  0  0  0  0  0  0  0  0
   -1.3695  -54.0996  -21.9552 O   0  0  0  0  0  0  0  0  0  0  0  0
    0.0641  -52.5178  -22.9714 C   0  0  0  0  0  0  0  0  0  0  0  0
    0.9183  -51.4596  -22.7817 C   0  0  0  0  0  0  0  0  0  0  0  0
    1.3926  -51.0644  -23.9968 N   0  0  0  0  0  0  0  0  0  0  0  0
    0.8603  -51.8476  -24.9631 C   0  0  0  0  0  0  0  0  0  0  0  0
    1.0114  -51.8663  -26.3384 C   0  0  0  0  0  0  0  0  0  0  0  0
    0.3303  -52.7965  -27.0822 C   0  0  0  0  0  0  0  0  0  0  0  0
   -0.4900  -53.6898  -26.4250 C   0  0  0  0  0  0  0  0  0  0  0  0
   -0.6421  -53.6737  -25.0568 C   0  0  0  0  0  0  0  0  0  0  0  0
    0.0359  -52.7483  -24.3197 C   0  0  0  0  0  0  0  0  0  0  0  0
    1.2420  -50.8784  -21.4781 C   0  0  0  0  0  0  0  0  0  0  0  0
    0.8671  -49.3915  -21.5484 C   0  0  0  0  0  0  0  0  0  0  0  0
    2.7636  -50.9006  -21.3425 C   0  0  0  0  0  0  0  0  0  0  0  0
    2.0554  -50.2935  -24.1966 H   0  0  0  0  0  0  0  0  0  0  0  0
    0.7222  -49.8134  -13.9734 C   0  0  0  0  0  0  0  0  0  0  0  0
    1.2500  -49.2911  -15.3269 C   0  0  0  0  0  0  0  0  0  0  0  0
    1.6244  -50.3802  -16.2796 C   0  0  0  0  0  0  0  0  0  0  0  0
    0.4406  -51.1360  -16.6398 N   0  0  0  0  0  0  0  0  0  0  0  0
   -0.4945  -51.3689  -15.5459 C   0  0  0  0  0  0  0  0  0  0  0  0
    0.3301  -51.2427  -14.2822 C   0  0  0  0  0  0  0  0  0  0  0  0
   -0.3557  -48.9868  -13.6503 N   0  0  0  0  0  0  0  0  0  0  0  0
   -1.3329  -49.2748  -12.7337 C   0  0  0  0  0  0  0  0  0  0  0  0
   -2.7244  -48.9773  -13.2372 C   0  0  0  0  0  0  0  0  0  0  0  0
   -2.8196  -47.8082  -13.9435 O   0  0  0  0  0  0  0  0  0  0  0  0
   -1.8859  -47.7365  -14.9819 C   0  0  0  0  0  0  0  0  0  0  0  0
   -0.5209  -47.7621  -14.3254 C   0  0  0  0  0  0  0  0  0  0  0  0
    2.4995  -51.1250  -12.7369 C   0  0  0  0  0  0  0  0  0  0  0  0
    1.8000  -49.7797  -12.9420 C   0  0  0  0  0  0  0  0  0  0  0  0
    2.9046  -48.7984  -13.1173 C   0  0  0  0  0  0  0  0  0  0  0  0
    0.4657  -52.8450  -28.5344 C   0  0  0  0  0  0  0  0  0  0  0  0
    0.5555  -52.8837  -29.6861 N   0  0  0  0  0  0  0  0  0  0  0  0
 34 35  1  0  0  0
 35 36  1  0  0  0
 35 22  1  0  0  0
 22 28  1  0  0  0
 28 29  1  0  0  0
 29 30  1  0  0  0
 30 31  1  0  0  0
 31 32  1  0  0  0
 32 33  1  0  0  0
 22 23  1  0  0  0
 23 24  1  0  0  0
 24 25  1  0  0  0
 25  1  1  0  0  0
  1  2  2  0  0  0
  2  3  1  0  0  0
  3  4  2  0  0  0
  4  5  1  0  0  0
  5  6  2  0  0  0
  4  7  1  0  0  0
  7  8  2  0  0  0
  7  9  1  0  0  0
  9 10  2  0  0  0
 10 11  1  0  0  0
 11 12  1  0  0  0
 12 13  2  0  0  0
 13 14  1  0  0  0
 14 37  1  0  0  0
 37 38  3  0  0  0
 14 15  2  0  0  0
 15 16  1  0  0  0
 16 17  2  0  0  0
 10 18  1  0  0  0
 18 19  1  0  0  0
 18 20  1  0  0  0
 25 26  1  0  0  0
 26 27  1  0  0  0
 27 22  1  0  0  0
 33 28  1  0  0  0
  6  1  1  0  0  0
 17  9  1  0  0  0
 18  3  1  0  0  0
 17 12  1  0  0  0
 11 21  1  0  0  0
M  END
> <minimizedAffinity>
-8.94721

> <CNNscore>
0.6244426966

> <CNNaffinity>
7.2579817772

> <CNN_VS>
4.5321936607

> <CNNaffinity_variance>
0.2383640260

$$$$
[H]c1nc(N2C([H])([H])C([H])([H])C(N3C([H])([H])C([H])([H])OC([H])([H])C3([H])[H])(C([H])(C([H])([H])[H])C([H])([H])[H])C([H])([H])C2([H])[H])c([H])c2c1C(=O)c1c(n([H])c3c([H])c(C#N)c([H])c([H])c13)C2(C([H])([H])[H])C([H])([H])[H]


 38 43  0  0  0  0  0  0  0  0999 V2000
    1.1510  -50.8568  -18.0502 C   0  0  0  0  0  0  0  0  0  0  0  0
    1.6752  -50.4194  -19.2385 C   0  0  0  0  0  0  0  0  0  0  0  0
    1.2318  -50.9284  -20.4670 C   0  0  0  0  0  0  0  0  0  0  0  0
    0.2499  -51.8844  -20.4379 C   0  0  0  0  0  0  0  0  0  0  0  0
   -0.2632  -52.3095  -19.2243 C   0  0  0  0  0  0  0  0  0  0  0  0
    0.1899  -51.7958  -18.0706 N   0  0  0  0  0  0  0  0  0  0  0  0
   -0.2467  -52.4454  -21.6835 C   0  0  0  0  0  0  0  0  0  0  0  0
   -1.1546  -53.3302  -21.6666 O   0  0  0  0  0  0  0  0  0  0  0  0
    0.3103  -51.9790  -22.9387 C   0  0  0  0  0  0  0  0  0  0  0  0
    1.2924  -51.0195  -22.9157 C   0  0  0  0  0  0  0  0  0  0  0  0
    1.6565  -50.7435  -24.1998 N   0  0  0  0  0  0  0  0  0  0  0  0
    0.9280  -51.5064  -25.0471 C   0  0  0  0  0  0  0  0  0  0  0  0
    0.9083  -51.6111  -26.4266 C   0  0  0  0  0  0  0  0  0  0  0  0
    0.0439  -52.4915  -27.0269 C   0  0  0  0  0  0  0  0  0  0  0  0
   -0.7838  -53.2492  -26.2247 C   0  0  0  0  0  0  0  0  0  0  0  0
   -0.7662  -53.1472  -24.8518 C   0  0  0  0  0  0  0  0  0  0  0  0
    0.0938  -52.2716  -24.2575 C   0  0  0  0  0  0  0  0  0  0  0  0
    1.8337  -50.4158  -21.6973 C   0  0  0  0  0  0  0  0  0  0  0  0
    1.6187  -48.9007  -21.8181 C   0  0  0  0  0  0  0  0  0  0  0  0
    3.3487  -50.6086  -21.7362 C   0  0  0  0  0  0  0  0  0  0  0  0
    2.3708  -50.0660  -24.5227 H   0  0  0  0  0  0  0  0  0  0  0  0
    2.7059  -48.9639  -14.3771 C   0  0  0  0  0  0  0  0  0  0  0  0
    3.5113  -49.6114  -15.5241 C   0  0  0  0  0  0  0  0  0  0  0  0
    2.8218  -50.7814  -16.1482 C   0  0  0  0  0  0  0  0  0  0  0  0
    1.6014  -50.3366  -16.7925 N   0  0  0  0  0  0  0  0  0  0  0  0
    0.8596  -49.3158  -16.0623 C   0  0  0  0  0  0  0  0  0  0  0  0
    1.2964  -49.4603  -14.6197 C   0  0  0  0  0  0  0  0  0  0  0  0
    2.8590  -47.5864  -14.5464 N   0  0  0  0  0  0  0  0  0  0  0  0
    2.1478  -46.6192  -13.8854 C   0  0  0  0  0  0  0  0  0  0  0  0
    1.6451  -45.5260  -14.7968 C   0  0  0  0  0  0  0  0  0  0  0  0
    2.5530  -45.1329  -15.7433 O   0  0  0  0  0  0  0  0  0  0  0  0
    3.0514  -46.2103  -16.4822 C   0  0  0  0  0  0  0  0  0  0  0  0
    3.7790  -47.0994  -15.4948 C   0  0  0  0  0  0  0  0  0  0  0  0
    2.8272  -50.8860  -12.7344 C   0  0  0  0  0  0  0  0  0  0  0  0
    3.2050  -49.4379  -13.0533 C   0  0  0  0  0  0  0  0  0  0  0  0
    4.6669  -49.3580  -12.7880 C   0  0  0  0  0  0  0  0  0  0  0  0
   -0.0039  -52.6278  -28.4790 C   0  0  0  0  0  0  0  0  0  0  0  0
   -0.0543  -52.7234  -29.6299 N   0  0  0  0  0  0  0  0  0  0  0  0
 34 35  1  0  0  0
 35 36  1  0  0  0
 35 22  1  0  0  0
 22 28  1  0  0  0
 28 29  1  0  0  0
 29 30  1  0  0  0
 30 31  1  0  0  0
 31 32  1  0  0  0
 32 33  1  0  0  0
 22 23  1  0  0  0
 23 24  1  0  0  0
 24 25  1  0  0  0
 25  1  1  0  0  0
  1  2  2  0  0  0
  2  3  1  0  0  0
  3  4  2  0  0  0
  4  5  1  0  0  0
  5  6  2  0  0  0
  4  7  1  0  0  0
  7  8  2  0  0  0
  7  9  1  0  0  0
  9 10  2  0  0  0
 10 11  1  0  0  0
 11 12  1  0  0  0
 12 13  2  0  0  0
 13 14  1  0  0  0
 14 37  1  0  0  0
 37 38  3  0  0  0
 14 15  2  0  0  0
 15 16  1  0  0  0
 16 17  2  0  0  0
 10 18  1  0  0  0
 18 19  1  0  0  0
 18 20  1  0  0  0
 25 26  1  0  0  0
 26 27  1  0  0  0
 27 22  1  0  0  0
 33 28  1  0  0  0
  6  1  1  0  0  0
 17  9  1  0  0  0
 18  3  1  0  0  0
 17 12  1  0  0  0
 11 21  1  0  0  0
M  END
> <minimizedAffinity>
-8.70720

> <CNNscore>
0.4022010863

> <CNNaffinity>
6.9002218246

> <CNN_VS>
2.7752766609

> <CNNaffinity_variance>
0.3452581763

$$$$
[H]c1nc(N2C([H])([H])C([H])([H])C(N3C([H])([H])C([H])([H])OC([H])([H])C3([H])[H])(C([H])(C([H])([H])[H])C([H])([H])[H])C([H])([H])C2([H])[H])c([H])c2c1C(=O)c1c(n([H])c3c([H])c(C#N)c([H])c([H])c13)C2(C([H])([H])[H])C([H])([H])[H]


 38 43  0  0  0  0  0  0  0  0999 V2000
    1.3416  -50.6933  -18.4895 C   0  0  0  0  0  0  0  0  0  0  0  0
    1.9018  -50.3484  -19.6916 C   0  0  0  0  0  0  0  0  0  0  0  0
    1.4145  -50.8613  -20.9017 C   0  0  0  0  0  0  0  0  0  0  0  0
    0.3518  -51.7249  -20.8400 C   0  0  0  0  0  0  0  0  0  0  0  0
   -0.1964  -52.0577  -19.6130 C   0  0  0  0  0  0  0  0  0  0  0  0
    0.3010  -51.5437  -18.4778 N   0  0  0  0  0  0  0  0  0  0  0  0
   -0.1932  -52.2855  -22.0653 C   0  0  0  0  0  0  0  0  0  0  0  0
   -1.1759  -53.0852  -22.0183 O   0  0  0  0  0  0  0  0  0  0  0  0
    0.4022  -51.9171  -23.3354 C   0  0  0  0  0  0  0  0  0  0  0  0
    1.4654  -51.0481  -23.3452 C   0  0  0  0  0  0  0  0  0  0  0  0
    1.8518  -50.8531  -24.6376 N   0  0  0  0  0  0  0  0  0  0  0  0
    1.0582  -51.5796  -25.4581 C   0  0  0  0  0  0  0  0  0  0  0  0
    1.0285  -51.7331  -26.8329 C   0  0  0  0  0  0  0  0  0  0  0  0
    0.0893  -52.5552  -27.4026 C   0  0  0  0  0  0  0  0  0  0  0  0
   -0.8018  -53.2064  -26.5752 C   0  0  0  0  0  0  0  0  0  0  0  0
   -0.7745  -53.0555  -25.2070 C   0  0  0  0  0  0  0  0  0  0  0  0
    0.1599  -52.2380  -24.6431 C   0  0  0  0  0  0  0  0  0  0  0  0
    2.0587  -50.4499  -22.1485 C   0  0  0  0  0  0  0  0  0  0  0  0
    1.9787  -48.9273  -22.3258 C   0  0  0  0  0  0  0  0  0  0  0  0
    3.5507  -50.7774  -22.1760 C   0  0  0  0  0  0  0  0  0  0  0  0
    2.6232  -50.2541  -24.9834 H   0  0  0  0  0  0  0  0  0  0  0  0
    2.6619  -49.3581  -14.4937 C   0  0  0  0  0  0  0  0  0  0  0  0
    1.2349  -49.3229  -15.0816 C   0  0  0  0  0  0  0  0  0  0  0  0
    1.2042  -49.0659  -16.5536 C   0  0  0  0  0  0  0  0  0  0  0  0
    1.8369  -50.1688  -17.2506 N   0  0  0  0  0  0  0  0  0  0  0  0
    3.0225  -50.7083  -16.5959 C   0  0  0  0  0  0  0  0  0  0  0  0
    3.5326  -49.5912  -15.7101 C   0  0  0  0  0  0  0  0  0  0  0  0
    2.6635  -50.4172  -13.5838 N   0  0  0  0  0  0  0  0  0  0  0  0
    3.7785  -50.9830  -13.0227 C   0  0  0  0  0  0  0  0  0  0  0  0
    3.7498  -52.4921  -13.0392 C   0  0  0  0  0  0  0  0  0  0  0  0
    2.5263  -53.0260  -12.7346 O   0  0  0  0  0  0  0  0  0  0  0  0
    1.5030  -52.4976  -13.5274 C   0  0  0  0  0  0  0  0  0  0  0  0
    1.4452  -51.0171  -13.2114 C   0  0  0  0  0  0  0  0  0  0  0  0
    3.7304  -47.0816  -14.7832 C   0  0  0  0  0  0  0  0  0  0  0  0
    2.9981  -48.0524  -13.8544 C   0  0  0  0  0  0  0  0  0  0  0  0
    1.8873  -47.2547  -13.2682 C   0  0  0  0  0  0  0  0  0  0  0  0
    0.0289  -52.7404  -28.8489 C   0  0  0  0  0  0  0  0  0  0  0  0
   -0.0088  -52.8730  -29.9965 N   0  0  0  0  0  0  0  0  0  0  0  0
 34 35  1  0  0  0
 35 36  1  0  0  0
 35 22  1  0  0  0
 22 28  1  0  0  0
 28 29  1  0  0  0
 29 30  1  0  0  0
 30 31  1  0  0  0
 31 32  1  0  0  0
 32 33  1  0  0  0
 22 23  1  0  0  0
 23 24  1  0  0  0
 24 25  1  0  0  0
 25  1  1  0  0  0
  1  2  2  0  0  0
  2  3  1  0  0  0
  3  4  2  0  0  0
  4  5  1  0  0  0
  5  6  2  0  0  0
  4  7  1  0  0  0
  7  8  2  0  0  0
  7  9  1  0  0  0
  9 10  2  0  0  0
 10 11  1  0  0  0
 11 12  1  0  0  0
 12 13  2  0  0  0
 13 14  1  0  0  0
 14 37  1  0  0  0
 37 38  3  0  0  0
 14 15  2  0  0  0
 15 16  1  0  0  0
 16 17  2  0  0  0
 10 18  1  0  0  0
 18 19  1  0  0  0
 18 20  1  0  0  0
 25 26  1  0  0  0
 26 27  1  0  0  0
 27 22  1  0  0  0
 33 28  1  0  0  0
  6  1  1  0  0  0
 17  9  1  0  0  0
 18  3  1  0  0  0
 17 12  1  0  0  0
 11 21  1  0  0  0
M  END
> <minimizedAffinity>
-8.74517

> <CNNscore>
0.3125187159

> <CNNaffinity>
6.8071465492

> <CNN_VS>
2.1273605824

> <CNNaffinity_variance>
0.2705552280

$$$$
[H]c1nc(N2C([H])([H])C([H])([H])C(N3C([H])([H])C([H])([H])OC([H])([H])C3([H])[H])(C([H])(C([H])([H])[H])C([H])([H])[H])C([H])([H])C2([H])[H])c([H])c2c1C(=O)c1c(n([H])c3c([H])c(C#N)c([H])c([H])c13)C2(C([H])([H])[H])C([H])([H])[H]


 38 43  0  0  0  0  0  0  0  0999 V2000
    3.8534  -46.5097  -27.0861 C   0  0  0  0  0  0  0  0  0  0  0  0
    4.3265  -47.6168  -26.4315 C   0  0  0  0  0  0  0  0  0  0  0  0
    4.0782  -47.8241  -25.0676 C   0  0  0  0  0  0  0  0  0  0  0  0
    3.3413  -46.8751  -24.4078 C   0  0  0  0  0  0  0  0  0  0  0  0
    2.8747  -45.7654  -25.0918 C   0  0  0  0  0  0  0  0  0  0  0  0
    3.1355  -45.6057  -26.3982 N   0  0  0  0  0  0  0  0  0  0  0  0
    3.0540  -47.0412  -22.9927 C   0  0  0  0  0  0  0  0  0  0  0  0
    2.3734  -46.1688  -22.3740 O   0  0  0  0  0  0  0  0  0  0  0  0
    3.5560  -48.2148  -22.3042 C   0  0  0  0  0  0  0  0  0  0  0  0
    4.2895  -49.1373  -23.0087 C   0  0  0  0  0  0  0  0  0  0  0  0
    4.6491  -50.1419  -22.1607 N   0  0  0  0  0  0  0  0  0  0  0  0
    4.1614  -49.8830  -20.9254 C   0  0  0  0  0  0  0  0  0  0  0  0
    4.2402  -50.5710  -19.7276 C   0  0  0  0  0  0  0  0  0  0  0  0
    3.6340  -50.0562  -18.6095 C   0  0  0  0  0  0  0  0  0  0  0  0
    2.9600  -48.8579  -18.7209 C   0  0  0  0  0  0  0  0  0  0  0  0
    2.8800  -48.1711  -19.9115 C   0  0  0  0  0  0  0  0  0  0  0  0
    3.4834  -48.6847  -21.0213 C   0  0  0  0  0  0  0  0  0  0  0  0
    4.6118  -49.0283  -24.4322 C   0  0  0  0  0  0  0  0  0  0  0  0
    4.0624  -50.2908  -25.1108 C   0  0  0  0  0  0  0  0  0  0  0  0
    6.1306  -49.1363  -24.5576 C   0  0  0  0  0  0  0  0  0  0  0  0
    5.2055  -50.9874  -22.3820 H   0  0  0  0  0  0  0  0  0  0  0  0
    4.9885  -45.9866  -31.3205 C   0  0  0  0  0  0  0  0  0  0  0  0
    5.5429  -45.2362  -30.0906 C   0  0  0  0  0  0  0  0  0  0  0  0
    4.5245  -45.0168  -29.0189 C   0  0  0  0  0  0  0  0  0  0  0  0
    4.1044  -46.2962  -28.4814 N   0  0  0  0  0  0  0  0  0  0  0  0
    3.9535  -47.3568  -29.4702 C   0  0  0  0  0  0  0  0  0  0  0  0
    3.7334  -46.6450  -30.7885 C   0  0  0  0  0  0  0  0  0  0  0  0
    5.9893  -46.8879  -31.6888 N   0  0  0  0  0  0  0  0  0  0  0  0
    7.3229  -46.7578  -31.4013 C   0  0  0  0  0  0  0  0  0  0  0  0
    8.2150  -47.0398  -32.5858 C   0  0  0  0  0  0  0  0  0  0  0  0
    7.8136  -48.1106  -33.3389 O   0  0  0  0  0  0  0  0  0  0  0  0
    6.4756  -48.0123  -33.7326 C   0  0  0  0  0  0  0  0  0  0  0  0
    5.6580  -48.0205  -32.4573 C   0  0  0  0  0  0  0  0  0  0  0  0
    5.8712  -44.3356  -33.0244 C   0  0  0  0  0  0  0  0  0  0  0  0
    4.6511  -45.0269  -32.4121 C   0  0  0  0  0  0  0  0  0  0  0  0
    3.8774  -45.5365  -33.5764 C   0  0  0  0  0  0  0  0  0  0  0  0
    3.6968  -50.7549  -17.3299 C   0  0  0  0  0  0  0  0  0  0  0  0
    3.7551  -51.3215  -16.3241 N   0  0  0  0  0  0  0  0  0  0  0  0
 34 35  1  0  0  0
 35 36  1  0  0  0
 35 22  1  0  0  0
 22 28  1  0  0  0
 28 29  1  0  0  0
 29 30  1  0  0  0
 30 31  1  0  0  0
 31 32  1  0  0  0
 32 33  1  0  0  0
 22 23  1  0  0  0
 23 24  1  0  0  0
 24 25  1  0  0  0
 25  1  1  0  0  0
  1  2  2  0  0  0
  2  3  1  0  0  0
  3  4  2  0  0  0
  4  5  1  0  0  0
  5  6  2  0  0  0
  4  7  1  0  0  0
  7  8  2  0  0  0
  7  9  1  0  0  0
  9 10  2  0  0  0
 10 11  1  0  0  0
 11 12  1  0  0  0
 12 13  2  0  0  0
 13 14  1  0  0  0
 14 37  1  0  0  0
 37 38  3  0  0  0
 14 15  2  0  0  0
 15 16  1  0  0  0
 16 17  2  0  0  0
 10 18  1  0  0  0
 18 19  1  0  0  0
 18 20  1  0  0  0
 25 26  1  0  0  0
 26 27  1  0  0  0
 27 22  1  0  0  0
 33 28  1  0  0  0
  6  1  1  0  0  0
 17  9  1  0  0  0
 18  3  1  0  0  0
 17 12  1  0  0  0
 11 21  1  0  0  0
M  END
> <minimizedAffinity>
-6.18130

> <CNNscore>
0.2150213718

> <CNNaffinity>
6.0474023819

> <CNN_VS>
1.3003207445

> <CNNaffinity_variance>
0.3443551958

$$$$
[H]c1nc(N2C([H])([H])C([H])([H])C(N3C([H])([H])C([H])([H])OC([H])([H])C3([H])[H])(C([H])(C([H])([H])[H])C([H])([H])[H])C([H])([H])C2([H])[H])c([H])c2c1C(=O)c1c(n([H])c3c([H])c(C#N)c([H])c([H])c13)C2(C([H])([H])[H])C([H])([H])[H]


 38 43  0  0  0  0  0  0  0  0999 V2000
    0.5809  -50.6301  -18.2454 C   0  0  0  0  0  0  0  0  0  0  0  0
    0.0425  -51.6015  -19.0481 C   0  0  0  0  0  0  0  0  0  0  0  0
    0.2346  -51.5949  -20.4367 C   0  0  0  0  0  0  0  0  0  0  0  0
    0.9842  -50.5768  -20.9663 C   0  0  0  0  0  0  0  0  0  0  0  0
    1.5171  -49.6073  -20.1339 C   0  0  0  0  0  0  0  0  0  0  0  0
    1.3087  -49.6511  -18.8092 N   0  0  0  0  0  0  0  0  0  0  0  0
    1.2149  -50.5227  -22.4004 C   0  0  0  0  0  0  0  0  0  0  0  0
    1.9067  -49.5848  -22.8995 O   0  0  0  0  0  0  0  0  0  0  0  0
    0.6440  -51.5533  -23.2460 C   0  0  0  0  0  0  0  0  0  0  0  0
   -0.0995  -52.5526  -22.6681 C   0  0  0  0  0  0  0  0  0  0  0  0
   -0.5273  -53.3956  -23.6500 N   0  0  0  0  0  0  0  0  0  0  0  0
   -0.0736  -52.9576  -24.8471 C   0  0  0  0  0  0  0  0  0  0  0  0
   -0.2211  -53.4412  -26.1350 C   0  0  0  0  0  0  0  0  0  0  0  0
    0.3650  -52.7734  -27.1806 C   0  0  0  0  0  0  0  0  0  0  0  0
    1.0885  -51.6313  -26.9073 C   0  0  0  0  0  0  0  0  0  0  0  0
    1.2368  -51.1478  -25.6268 C   0  0  0  0  0  0  0  0  0  0  0  0
    0.6533  -51.8130  -24.5893 C   0  0  0  0  0  0  0  0  0  0  0  0
   -0.3672  -52.6633  -21.2335 C   0  0  0  0  0  0  0  0  0  0  0  0
    0.1563  -54.0357  -20.7878 C   0  0  0  0  0  0  0  0  0  0  0  0
   -1.8837  -52.7404  -21.0650 C   0  0  0  0  0  0  0  0  0  0  0  0
   -1.1080  -54.2470  -23.5437 H   0  0  0  0  0  0  0  0  0  0  0  0
    0.3121  -50.8601  -13.8446 C   0  0  0  0  0  0  0  0  0  0  0  0
    0.1819  -52.0121  -14.8640 C   0  0  0  0  0  0  0  0  0  0  0  0
   -0.4594  -51.5993  -16.1493 C   0  0  0  0  0  0  0  0  0  0  0  0
    0.3874  -50.6355  -16.8249 N   0  0  0  0  0  0  0  0  0  0  0  0
    1.0313  -49.6646  -15.9484 C   0  0  0  0  0  0  0  0  0  0  0  0
    0.1721  -49.6204  -14.7023 C   0  0  0  0  0  0  0  0  0  0  0  0
    1.5755  -51.0126  -13.2701 N   0  0  0  0  0  0  0  0  0  0  0  0
    2.3330  -50.0043  -12.7337 C   0  0  0  0  0  0  0  0  0  0  0  0
    3.7778  -50.0529  -13.1681 C   0  0  0  0  0  0  0  0  0  0  0  0
    4.3046  -51.3164  -13.1988 O   0  0  0  0  0  0  0  0  0  0  0  0
    3.5257  -52.1994  -13.9527 C   0  0  0  0  0  0  0  0  0  0  0  0
    2.1843  -52.2823  -13.2536 C   0  0  0  0  0  0  0  0  0  0  0  0
   -1.8252  -49.8098  -12.9862 C   0  0  0  0  0  0  0  0  0  0  0  0
   -0.7873  -50.9242  -12.8377 C   0  0  0  0  0  0  0  0  0  0  0  0
   -1.5837  -52.1780  -12.7513 C   0  0  0  0  0  0  0  0  0  0  0  0
    0.2303  -53.2550  -28.5516 C   0  0  0  0  0  0  0  0  0  0  0  0
    0.1159  -53.6212  -29.6419 N   0  0  0  0  0  0  0  0  0  0  0  0
 34 35  1  0  0  0
 35 36  1  0  0  0
 35 22  1  0  0  0
 22 28  1  0  0  0
 28 29  1  0  0  0
 29 30  1  0  0  0
 30 31  1  0  0  0
 31 32  1  0  0  0
 32 33  1  0  0  0
 22 23  1  0  0  0
 23 24  1  0  0  0
 24 25  1  0  0  0
 25  1  1  0  0  0
  1  2  2  0  0  0
  2  3  1  0  0  0
  3  4  2  0  0  0
  4  5  1  0  0  0
  5  6  2  0  0  0
  4  7  1  0  0  0
  7  8  2  0  0  0
  7  9  1  0  0  0
  9 10  2  0  0  0
 10 11  1  0  0  0
 11 12  1  0  0  0
 12 13  2  0  0  0
 13 14  1  0  0  0
 14 37  1  0  0  0
 37 38  3  0  0  0
 14 15  2  0  0  0
 15 16  1  0  0  0
 16 17  2  0  0  0
 10 18  1  0  0  0
 18 19  1  0  0  0
 18 20  1  0  0  0
 25 26  1  0  0  0
 26 27  1  0  0  0
 27 22  1  0  0  0
 33 28  1  0  0  0
  6  1  1  0  0  0
 17  9  1  0  0  0
 18  3  1  0  0  0
 17 12  1  0  0  0
 11 21  1  0  0  0
M  END
> <minimizedAffinity>
-8.81604

> <CNNscore>
0.1610304862

> <CNNaffinity>
6.5431990623

> <CNN_VS>
1.0536545515

> <CNNaffinity_variance>
0.2486435473

$$$$
[H]c1nc(N2C([H])([H])C([H])([H])C(N3C([H])([H])C([H])([H])OC([H])([H])C3([H])[H])(C([H])(C([H])([H])[H])C([H])([H])[H])C([H])([H])C2([H])[H])c([H])c2c1C(=O)c1c(n([H])c3c([H])c(C#N)c([H])c([H])c13)C2(C([H])([H])[H])C([H])([H])[H]


 38 43  0  0  0  0  0  0  0  0999 V2000
    0.3672  -52.2758  -22.0057 C   0  0  0  0  0  0  0  0  0  0  0  0
    1.0923  -51.1508  -21.7116 C   0  0  0  0  0  0  0  0  0  0  0  0
    1.1594  -50.6419  -20.4072 C   0  0  0  0  0  0  0  0  0  0  0  0
    0.4703  -51.3129  -19.4306 C   0  0  0  0  0  0  0  0  0  0  0  0
   -0.2550  -52.4472  -19.7535 C   0  0  0  0  0  0  0  0  0  0  0  0
   -0.2927  -52.9006  -21.0157 N   0  0  0  0  0  0  0  0  0  0  0  0
    0.5066  -50.8284  -18.0607 C   0  0  0  0  0  0  0  0  0  0  0  0
   -0.1277  -51.4422  -17.1507 O   0  0  0  0  0  0  0  0  0  0  0  0
    1.2759  -49.6379  -17.7539 C   0  0  0  0  0  0  0  0  0  0  0  0
    1.9494  -49.0008  -18.7668 C   0  0  0  0  0  0  0  0  0  0  0  0
    2.5936  -47.9195  -18.2439 N   0  0  0  0  0  0  0  0  0  0  0  0
    2.3473  -47.8493  -16.9153 C   0  0  0  0  0  0  0  0  0  0  0  0
    2.7543  -46.9604  -15.9361 C   0  0  0  0  0  0  0  0  0  0  0  0
    2.3385  -47.1419  -14.6413 C   0  0  0  0  0  0  0  0  0  0  0  0
    1.5205  -48.2160  -14.3588 C   0  0  0  0  0  0  0  0  0  0  0  0
    1.1139  -49.1019  -15.3310 C   0  0  0  0  0  0  0  0  0  0  0  0
    1.5284  -48.9194  -16.6172 C   0  0  0  0  0  0  0  0  0  0  0  0
    1.9531  -49.4381  -20.1635 C   0  0  0  0  0  0  0  0  0  0  0  0
    3.4200  -49.6647  -20.5549 C   0  0  0  0  0  0  0  0  0  0  0  0
    1.4939  -48.2496  -21.0067 C   0  0  0  0  0  0  0  0  0  0  0  0
    3.1875  -47.2341  -18.7448 H   0  0  0  0  0  0  0  0  0  0  0  0
   -0.1784  -53.6884  -26.1529 C   0  0  0  0  0  0  0  0  0  0  0  0
   -1.0538  -54.0036  -24.9210 C   0  0  0  0  0  0  0  0  0  0  0  0
   -0.2774  -54.0939  -23.6471 C   0  0  0  0  0  0  0  0  0  0  0  0
    0.2983  -52.7994  -23.3386 N   0  0  0  0  0  0  0  0  0  0  0  0
    0.8070  -52.0644  -24.4903 C   0  0  0  0  0  0  0  0  0  0  0  0
    1.0840  -53.1159  -25.5442 C   0  0  0  0  0  0  0  0  0  0  0  0
   -0.9123  -52.7695  -26.9056 N   0  0  0  0  0  0  0  0  0  0  0  0
   -2.1533  -52.2862  -26.5822 C   0  0  0  0  0  0  0  0  0  0  0  0
   -3.1111  -52.2837  -27.7489 C   0  0  0  0  0  0  0  0  0  0  0  0
   -2.5448  -51.8836  -28.9295 O   0  0  0  0  0  0  0  0  0  0  0  0
   -1.3862  -52.6044  -29.2350 C   0  0  0  0  0  0  0  0  0  0  0  0
   -0.3961  -52.3014  -28.1293 C   0  0  0  0  0  0  0  0  0  0  0  0
    1.4997  -54.9244  -27.5896 C   0  0  0  0  0  0  0  0  0  0  0  0
    0.1281  -54.9362  -26.9115 C   0  0  0  0  0  0  0  0  0  0  0  0
    0.0761  -56.2302  -26.1788 C   0  0  0  0  0  0  0  0  0  0  0  0
    2.7485  -46.2242  -13.5833 C   0  0  0  0  0  0  0  0  0  0  0  0
    3.0613  -45.5045  -12.7345 N   0  0  0  0  0  0  0  0  0  0  0  0
 34 35  1  0  0  0
 35 36  1  0  0  0
 35 22  1  0  0  0
 22 28  1  0  0  0
 28 29  1  0  0  0
 29 30  1  0  0  0
 30 31  1  0  0  0
 31 32  1  0  0  0
 32 33  1  0  0  0
 22 23  1  0  0  0
 23 24  1  0  0  0
 24 25  1  0  0  0
 25  1  1  0  0  0
  1  2  2  0  0  0
  2  3  1  0  0  0
  3  4  2  0  0  0
  4  5  1  0  0  0
  5  6  2  0  0  0
  4  7  1  0  0  0
  7  8  2  0  0  0
  7  9  1  0  0  0
  9 10  2  0  0  0
 10 11  1  0  0  0
 11 12  1  0  0  0
 12 13  2  0  0  0
 13 14  1  0  0  0
 14 37  1  0  0  0
 37 38  3  0  0  0
 14 15  2  0  0  0
 15 16  1  0  0  0
 16 17  2  0  0  0
 10 18  1  0  0  0
 18 19  1  0  0  0
 18 20  1  0  0  0
 25 26  1  0  0  0
 26 27  1  0  0  0
 27 22  1  0  0  0
 33 28  1  0  0  0
  6  1  1  0  0  0
 17  9  1  0  0  0
 18  3  1  0  0  0
 17 12  1  0  0  0
 11 21  1  0  0  0
M  END
> <minimizedAffinity>
-6.52610

> <CNNscore>
0.1433513016

> <CNNaffinity>
6.9783048630

> <CNN_VS>
1.0003490448

> <CNNaffinity_variance>
0.4627455771

$$$$
[H]c1nc(N2C([H])([H])C([H])([H])C(N3C([H])([H])C([H])([H])OC([H])([H])C3([H])[H])(C([H])(C([H])([H])[H])C([H])([H])[H])C([H])([H])C2([H])[H])c([H])c2c1C(=O)c1c(n([H])c3c([H])c(C#N)c([H])c([H])c13)C2(C([H])([H])[H])C([H])([H])[H]


 38 43  0  0  0  0  0  0  0  0999 V2000
    0.4766  -51.7235  -21.7934 C   0  0  0  0  0  0  0  0  0  0  0  0
    1.3279  -50.6757  -21.5585 C   0  0  0  0  0  0  0  0  0  0  0  0
    1.6685  -50.2854  -20.2560 C   0  0  0  0  0  0  0  0  0  0  0  0
    1.1172  -50.9930  -19.2195 C   0  0  0  0  0  0  0  0  0  0  0  0
    0.2598  -52.0476  -19.4832 C   0  0  0  0  0  0  0  0  0  0  0  0
   -0.0401  -52.3881  -20.7458 N   0  0  0  0  0  0  0  0  0  0  0  0
    1.4375  -50.6306  -17.8488 C   0  0  0  0  0  0  0  0  0  0  0  0
    0.9323  -51.2790  -16.8836 O   0  0  0  0  0  0  0  0  0  0  0  0
    2.3396  -49.5215  -17.6050 C   0  0  0  0  0  0  0  0  0  0  0  0
    2.8664  -48.8436  -18.6766 C   0  0  0  0  0  0  0  0  0  0  0  0
    3.6762  -47.8537  -18.2056 N   0  0  0  0  0  0  0  0  0  0  0  0
    3.6800  -47.8820  -16.8529 C   0  0  0  0  0  0  0  0  0  0  0  0
    4.3247  -47.1075  -15.9048 C   0  0  0  0  0  0  0  0  0  0  0  0
    4.1367  -47.3726  -14.5718 C   0  0  0  0  0  0  0  0  0  0  0  0
    3.3024  -48.4135  -14.2206 C   0  0  0  0  0  0  0  0  0  0  0  0
    2.6595  -49.1856  -15.1619 C   0  0  0  0  0  0  0  0  0  0  0  0
    2.8479  -48.9202  -16.4861 C   0  0  0  0  0  0  0  0  0  0  0  0
    2.5840  -49.1591  -20.0776 C   0  0  0  0  0  0  0  0  0  0  0  0
    3.9341  -49.4432  -20.7505 C   0  0  0  0  0  0  0  0  0  0  0  0
    2.0737  -47.8764  -20.7321 C   0  0  0  0  0  0  0  0  0  0  0  0
    4.2212  -47.1666  -18.7573 H   0  0  0  0  0  0  0  0  0  0  0  0
   -0.2219  -52.9075  -25.9890 C   0  0  0  0  0  0  0  0  0  0  0  0
    0.1836  -51.5185  -25.4506 C   0  0  0  0  0  0  0  0  0  0  0  0
   -0.4021  -51.2055  -24.1117 C   0  0  0  0  0  0  0  0  0  0  0  0
    0.1279  -52.1258  -23.1246 N   0  0  0  0  0  0  0  0  0  0  0  0
    0.2803  -53.4999  -23.5870 C   0  0  0  0  0  0  0  0  0  0  0  0
   -0.6831  -53.6399  -24.7469 C   0  0  0  0  0  0  0  0  0  0  0  0
    0.9359  -53.4368  -26.5624 N   0  0  0  0  0  0  0  0  0  0  0  0
    2.1971  -52.9158  -26.4351 C   0  0  0  0  0  0  0  0  0  0  0  0
    2.9463  -52.8502  -27.7438 C   0  0  0  0  0  0  0  0  0  0  0  0
    2.7756  -53.9542  -28.5356 O   0  0  0  0  0  0  0  0  0  0  0  0
    1.4264  -54.2543  -28.7462 C   0  0  0  0  0  0  0  0  0  0  0  0
    0.8475  -54.5770  -27.3840 C   0  0  0  0  0  0  0  0  0  0  0  0
   -2.5229  -51.9593  -26.4521 C   0  0  0  0  0  0  0  0  0  0  0  0
   -1.3416  -52.7842  -26.9674 C   0  0  0  0  0  0  0  0  0  0  0  0
   -1.0380  -52.2180  -28.3095 C   0  0  0  0  0  0  0  0  0  0  0  0
    4.8007  -46.5764  -13.5448 C   0  0  0  0  0  0  0  0  0  0  0  0
    5.3184  -45.9314  -12.7373 N   0  0  0  0  0  0  0  0  0  0  0  0
 34 35  1  0  0  0
 35 36  1  0  0  0
 35 22  1  0  0  0
 22 28  1  0  0  0
 28 29  1  0  0  0
 29 30  1  0  0  0
 30 31  1  0  0  0
 31 32  1  0  0  0
 32 33  1  0  0  0
 22 23  1  0  0  0
 23 24  1  0  0  0
 24 25  1  0  0  0
 25  1  1  0  0  0
  1  2  2  0  0  0
  2  3  1  0  0  0
  3  4  2  0  0  0
  4  5  1  0  0  0
  5  6  2  0  0  0
  4  7  1  0  0  0
  7  8  2  0  0  0
  7  9  1  0  0  0
  9 10  2  0  0  0
 10 11  1  0  0  0
 11 12  1  0  0  0
 12 13  2  0  0  0
 13 14  1  0  0  0
 14 37  1  0  0  0
 37 38  3  0  0  0
 14 15  2  0  0  0
 15 16  1  0  0  0
 16 17  2  0  0  0
 10 18  1  0  0  0
 18 19  1  0  0  0
 18 20  1  0  0  0
 25 26  1  0  0  0
 26 27  1  0  0  0
 27 22  1  0  0  0
 33 28  1  0  0  0
  6  1  1  0  0  0
 17  9  1  0  0  0
 18  3  1  0  0  0
 17 12  1  0  0  0
 11 21  1  0  0  0
M  END
> <minimizedAffinity>
-6.99174

> <CNNscore>
0.1343662739

> <CNNaffinity>
6.7917490005

> <CNN_VS>
0.9125819802

> <CNNaffinity_variance>
0.3885909021

$$$$
[H]c1nc(N2C([H])([H])C([H])([H])C(N3C([H])([H])C([H])([H])OC([H])([H])C3([H])[H])(C([H])(C([H])([H])[H])C([H])([H])[H])C([H])([H])C2([H])[H])c([H])c2c1C(=O)c1c(n([H])c3c([H])c(C#N)c([H])c([H])c13)C2(C([H])([H])[H])C([H])([H])[H]


 38 43  0  0  0  0  0  0  0  0999 V2000
    2.5600  -51.0176  -20.3381 C   0  0  0  0  0  0  0  0  0  0  0  0
    2.1544  -50.6160  -19.0923 C   0  0  0  0  0  0  0  0  0  0  0  0
    0.9754  -51.1044  -18.5122 C   0  0  0  0  0  0  0  0  0  0  0  0
    0.2383  -52.0029  -19.2390 C   0  0  0  0  0  0  0  0  0  0  0  0
    0.6696  -52.3927  -20.4956 C   0  0  0  0  0  0  0  0  0  0  0  0
    1.8050  -51.9004  -21.0140 N   0  0  0  0  0  0  0  0  0  0  0  0
   -0.9925  -52.5412  -18.6842 C   0  0  0  0  0  0  0  0  0  0  0  0
   -1.6811  -53.3727  -19.3490 O   0  0  0  0  0  0  0  0  0  0  0  0
   -1.4176  -52.1141  -17.3650 C   0  0  0  0  0  0  0  0  0  0  0  0
   -0.6449  -51.2120  -16.6761 C   0  0  0  0  0  0  0  0  0  0  0  0
   -1.2385  -50.9636  -15.4746 N   0  0  0  0  0  0  0  0  0  0  0  0
   -2.3772  -51.6881  -15.3781 C   0  0  0  0  0  0  0  0  0  0  0  0
   -3.3321  -51.7980  -14.3828 C   0  0  0  0  0  0  0  0  0  0  0  0
   -4.4074  -52.6306  -14.5647 C   0  0  0  0  0  0  0  0  0  0  0  0
   -4.4989  -53.3363  -15.7464 C   0  0  0  0  0  0  0  0  0  0  0  0
   -3.5503  -53.2287  -16.7384 C   0  0  0  0  0  0  0  0  0  0  0  0
   -2.4826  -52.4005  -16.5554 C   0  0  0  0  0  0  0  0  0  0  0  0
    0.6026  -50.6345  -17.1785 C   0  0  0  0  0  0  0  0  0  0  0  0
    1.6949  -50.9768  -16.1558 C   0  0  0  0  0  0  0  0  0  0  0  0
    0.4532  -49.1156  -17.1099 C   0  0  0  0  0  0  0  0  0  0  0  0
   -0.9074  -50.3301  -14.7247 H   0  0  0  0  0  0  0  0  0  0  0  0
    6.2205  -49.1604  -21.9641 C   0  0  0  0  0  0  0  0  0  0  0  0
    4.7565  -48.7242  -22.1871 C   0  0  0  0  0  0  0  0  0  0  0  0
    3.7947  -49.8675  -22.2269 C   0  0  0  0  0  0  0  0  0  0  0  0
    3.7662  -50.5211  -20.9330 N   0  0  0  0  0  0  0  0  0  0  0  0
    5.0628  -50.6387  -20.2769 C   0  0  0  0  0  0  0  0  0  0  0  0
    6.0836  -50.5555  -21.3922 C   0  0  0  0  0  0  0  0  0  0  0  0
    6.7537  -48.2305  -21.0693 N   0  0  0  0  0  0  0  0  0  0  0  0
    7.9480  -48.3554  -20.4090 C   0  0  0  0  0  0  0  0  0  0  0  0
    7.8538  -48.0098  -18.9427 C   0  0  0  0  0  0  0  0  0  0  0  0
    7.0779  -46.9124  -18.6811 O   0  0  0  0  0  0  0  0  0  0  0  0
    5.8064  -47.0111  -19.2545 C   0  0  0  0  0  0  0  0  0  0  0  0
    6.0218  -47.0698  -20.7528 C   0  0  0  0  0  0  0  0  0  0  0  0
    7.5835  -50.5596  -23.5741 C   0  0  0  0  0  0  0  0  0  0  0  0
    6.9595  -49.1983  -23.2598 C   0  0  0  0  0  0  0  0  0  0  0  0
    6.2222  -48.8223  -24.4962 C   0  0  0  0  0  0  0  0  0  0  0  0
   -5.4332  -52.7712  -13.5364 C   0  0  0  0  0  0  0  0  0  0  0  0
   -6.2581  -52.8785  -12.7338 N   0  0  0  0  0  0  0  0  0  0  0  0
 34 35  1  0  0  0
 35 36  1  0  0  0
 35 22  1  0  0  0
 22 28  1  0  0  0
 28 29  1  0  0  0
 29 30  1  0  0  0
 30 31  1  0  0  0
 31 32  1  0  0  0
 32 33  1  0  0  0
 22 23  1  0  0  0
 23 24  1  0  0  0
 24 25  1  0  0  0
 25  1  1  0  0  0
  1  2  2  0  0  0
  2  3  1  0  0  0
  3  4  2  0  0  0
  4  5  1  0  0  0
  5  6  2  0  0  0
  4  7  1  0  0  0
  7  8  2  0  0  0
  7  9  1  0  0  0
  9 10  2  0  0  0
 10 11  1  0  0  0
 11 12  1  0  0  0
 12 13  2  0  0  0
 13 14  1  0  0  0
 14 37  1  0  0  0
 37 38  3  0  0  0
 14 15  2  0  0  0
 15 16  1  0  0  0
 16 17  2  0  0  0
 10 18  1  0  0  0
 18 19  1  0  0  0
 18 20  1  0  0  0
 25 26  1  0  0  0
 26 27  1  0  0  0
 27 22  1  0  0  0
 33 28  1  0  0  0
  6  1  1  0  0  0
 17  9  1  0  0  0
 18  3  1  0  0  0
 17 12  1  0  0  0
 11 21  1  0  0  0
M  END
> <minimizedAffinity>
-6.82010

> <CNNscore>
0.1215590388

> <CNNaffinity>
6.2188653946

> <CNN_VS>
0.7559592724

> <CNNaffinity_variance>
0.2184442729

$$$$
[H]c1nc(N2C([H])([H])C([H])([H])C(N3C([H])([H])C([H])([H])OC([H])([H])C3([H])[H])(C([H])(C([H])([H])[H])C([H])([H])[H])C([H])([H])C2([H])[H])c([H])c2c1C(=O)c1c(n([H])c3c([H])c(C#N)c([H])c([H])c13)C2(C([H])([H])[H])C([H])([H])[H]


 38 43  0  0  0  0  0  0  0  0999 V2000
    3.7773  -49.6544  -18.3302 C   0  0  0  0  0  0  0  0  0  0  0  0
    3.0314  -49.8550  -19.4622 C   0  0  0  0  0  0  0  0  0  0  0  0
    3.5382  -49.5617  -20.7358 C   0  0  0  0  0  0  0  0  0  0  0  0
    4.8134  -49.0644  -20.8096 C   0  0  0  0  0  0  0  0  0  0  0  0
    5.5464  -48.8707  -19.6512 C   0  0  0  0  0  0  0  0  0  0  0  0
    5.0229  -49.1647  -18.4513 N   0  0  0  0  0  0  0  0  0  0  0  0
    5.3879  -48.7440  -22.1057 C   0  0  0  0  0  0  0  0  0  0  0  0
    6.5665  -48.2835  -22.1840 O   0  0  0  0  0  0  0  0  0  0  0  0
    4.5953  -48.9587  -23.3011 C   0  0  0  0  0  0  0  0  0  0  0  0
    3.3227  -49.4591  -23.1753 C   0  0  0  0  0  0  0  0  0  0  0  0
    2.7788  -49.5738  -24.4197 N   0  0  0  0  0  0  0  0  0  0  0  0
    3.6765  -49.1571  -25.3424 C   0  0  0  0  0  0  0  0  0  0  0  0
    3.6253  -49.0712  -26.7224 C   0  0  0  0  0  0  0  0  0  0  0  0
    4.7130  -48.5989  -27.4126 C   0  0  0  0  0  0  0  0  0  0  0  0
    5.8312  -48.2225  -26.6980 C   0  0  0  0  0  0  0  0  0  0  0  0
    5.8849  -48.3068  -25.3249 C   0  0  0  0  0  0  0  0  0  0  0  0
    4.8026  -48.7764  -24.6411 C   0  0  0  0  0  0  0  0  0  0  0  0
    2.6884  -49.8014  -21.9016 C   0  0  0  0  0  0  0  0  0  0  0  0
    2.2871  -51.2806  -21.9877 C   0  0  0  0  0  0  0  0  0  0  0  0
    1.3695  -49.0330  -21.8366 C   0  0  0  0  0  0  0  0  0  0  0  0
    1.8341  -49.9196  -24.6674 H   0  0  0  0  0  0  0  0  0  0  0  0
    2.4692  -50.3474  -14.1708 C   0  0  0  0  0  0  0  0  0  0  0  0
    3.7996  -50.7710  -14.8294 C   0  0  0  0  0  0  0  0  0  0  0  0
    3.6608  -51.1285  -16.2740 C   0  0  0  0  0  0  0  0  0  0  0  0
    3.2620  -49.9551  -17.0266 N   0  0  0  0  0  0  0  0  0  0  0  0
    2.2910  -49.0982  -16.3572 C   0  0  0  0  0  0  0  0  0  0  0  0
    1.5938  -49.9928  -15.3540 C   0  0  0  0  0  0  0  0  0  0  0  0
    2.7876  -49.2600  -13.3548 N   0  0  0  0  0  0  0  0  0  0  0  0
    1.8830  -48.4392  -12.7335 C   0  0  0  0  0  0  0  0  0  0  0  0
    2.2164  -46.9740  -12.8760 C   0  0  0  0  0  0  0  0  0  0  0  0
    3.5496  -46.6936  -12.7395 O   0  0  0  0  0  0  0  0  0  0  0  0
    4.3462  -47.4723  -13.5845 C   0  0  0  0  0  0  0  0  0  0  0  0
    4.1371  -48.9102  -13.1560 C   0  0  0  0  0  0  0  0  0  0  0  0
    0.7925  -52.2439  -14.1726 C   0  0  0  0  0  0  0  0  0  0  0  0
    1.8773  -51.4840  -13.4064 C   0  0  0  0  0  0  0  0  0  0  0  0
    2.7958  -52.5389  -12.8992 C   0  0  0  0  0  0  0  0  0  0  0  0
    4.6940  -48.4950  -28.8681 C   0  0  0  0  0  0  0  0  0  0  0  0
    4.6915  -48.4003  -30.0201 N   0  0  0  0  0  0  0  0  0  0  0  0
 34 35  1  0  0  0
 35 36  1  0  0  0
 35 22  1  0  0  0
 22 28  1  0  0  0
 28 29  1  0  0  0
 29 30  1  0  0  0
 30 31  1  0  0  0
 31 32  1  0  0  0
 32 33  1  0  0  0
 22 23  1  0  0  0
 23 24  1  0  0  0
 24 25  1  0  0  0
 25  1  1  0  0  0
  1  2  2  0  0  0
  2  3  1  0  0  0
  3  4  2  0  0  0
  4  5  1  0  0  0
  5  6  2  0  0  0
  4  7  1  0  0  0
  7  8  2  0  0  0
  7  9  1  0  0  0
  9 10  2  0  0  0
 10 11  1  0  0  0
 11 12  1  0  0  0
 12 13  2  0  0  0
 13 14  1  0  0  0
 14 37  1  0  0  0
 37 38  3  0  0  0
 14 15  2  0  0  0
 15 16  1  0  0  0
 16 17  2  0  0  0
 10 18  1  0  0  0
 18 19  1  0  0  0
 18 20  1  0  0  0
 25 26  1  0  0  0
 26 27  1  0  0  0
 27 22  1  0  0  0
 33 28  1  0  0  0
  6  1  1  0  0  0
 17  9  1  0  0  0
 18  3  1  0  0  0
 17 12  1  0  0  0
 11 21  1  0  0  0
M  END
> <minimizedAffinity>
-5.84430

> <CNNscore>
0.1047765166

> <CNNaffinity>
5.7579712868

> <CNN_VS>
0.6033001542

> <CNNaffinity_variance>
0.0823996216

$$$$
[H]OC(=O)c1c([H])c([H])nc([H])c1N([H])C([H])([H])C1([H])c2c([H])c([H])c(Sc3sc([H])c([H])c3[H])c([H])c2OC([H])([H])C1([H])[H]


 29 32  0  0  0  0  0  0  0  0999 V2000
    0.2919  -53.2379  -23.1213 C   0  0  0  0  0  0  0  0  0  0  0  0
   -0.0080  -54.7049  -23.3853 C   0  0  0  0  0  0  0  0  0  0  0  0
   -1.4425  -55.0006  -23.0736 C   0  0  0  0  0  0  0  0  0  0  0  0
   -1.7958  -54.5351  -21.8060 O   0  0  0  0  0  0  0  0  0  0  0  0
   -0.9995  -53.6578  -21.0699 C   0  0  0  0  0  0  0  0  0  0  0  0
   -1.2586  -53.4490  -19.7092 C   0  0  0  0  0  0  0  0  0  0  0  0
   -0.4862  -52.5858  -18.9561 C   0  0  0  0  0  0  0  0  0  0  0  0
    0.5500  -51.9377  -19.5962 C   0  0  0  0  0  0  0  0  0  0  0  0
    0.8143  -52.1417  -20.9551 C   0  0  0  0  0  0  0  0  0  0  0  0
    0.0340  -53.0000  -21.6716 C   0  0  0  0  0  0  0  0  0  0  0  0
   -0.6371  -52.4249  -23.9809 C   0  0  0  0  0  0  0  0  0  0  0  0
   -0.0612  -52.0769  -25.2775 N   0  0  0  0  0  0  0  0  0  0  0  0
    0.8569  -51.5981  -25.2932 H   0  0  0  0  0  0  0  0  0  0  0  0
   -0.0613  -52.6630  -27.6683 C   0  0  0  0  0  0  0  0  0  0  0  0
   -0.8439  -52.8438  -28.8314 C   0  0  0  0  0  0  0  0  0  0  0  0
   -2.2009  -52.7139  -28.8223 C   0  0  0  0  0  0  0  0  0  0  0  0
   -2.8130  -52.4061  -27.6815 N   0  0  0  0  0  0  0  0  0  0  0  0
   -2.1217  -52.2229  -26.5511 C   0  0  0  0  0  0  0  0  0  0  0  0
   -0.7254  -52.3449  -26.5075 C   0  0  0  0  0  0  0  0  0  0  0  0
    1.9559  -53.8945  -27.9942 O   0  0  0  0  0  0  0  0  0  0  0  0
    1.3600  -52.8513  -27.7448 C   0  0  0  0  0  0  0  0  0  0  0  0
    2.1890  -51.7331  -27.5123 O   0  0  0  0  0  0  0  0  0  0  0  0
    2.7769  -51.6662  -26.6985 H   0  0  0  0  0  0  0  0  0  0  0  0
   -0.8789  -52.3769  -17.2419 S   0  0  0  0  0  0  0  0  0  0  0  0
   -0.0820  -50.9037  -16.5676 C   0  0  0  0  0  0  0  0  0  0  0  0
   -0.6928  -49.7451  -16.1565 C   0  0  0  0  0  0  0  0  0  0  0  0
    0.1068  -48.7700  -15.6840 C   0  0  0  0  0  0  0  0  0  0  0  0
    1.4543  -49.0217  -15.6565 C   0  0  0  0  0  0  0  0  0  0  0  0
    1.5649  -50.5979  -16.2852 S   0  0  0  0  0  0  0  0  0  0  0  0
 20 21  2  0  0  0
 21 22  1  0  0  0
 21 14  1  0  0  0
 14 15  2  0  0  0
 15 16  1  0  0  0
 16 17  2  0  0  0
 17 18  1  0  0  0
 18 19  2  0  0  0
 19 12  1  0  0  0
 12 11  1  0  0  0
 11  1  1  0  0  0
  1  2  1  0  0  0
  2  3  1  0  0  0
  3  4  1  0  0  0
  4  5  1  0  0  0
  5  6  2  0  0  0
  6  7  1  0  0  0
  7 24  1  0  0  0
 24 25  1  0  0  0
 25 26  2  0  0  0
 26 27  1  0  0  0
 27 28  2  0  0  0
 28 29  1  0  0  0
  7  8  2  0  0  0
  8  9  1  0  0  0
  9 10  2  0  0  0
 19 14  1  0  0  0
 10  1  1  0  0  0
 10  5  1  0  0  0
 29 25  1  0  0  0
 22 23  1  0  0  0
 12 13  1  0  0  0
M  END
> <minimizedAffinity>
-7.98925

> <CNNscore>
0.8451519608

> <CNNaffinity>
6.9961380959

> <CNN_VS>
5.9127998352

> <CNNaffinity_variance>
0.0694644675

$$$$
[H]OC(=O)c1c([H])c([H])nc([H])c1N([H])C([H])([H])C1([H])c2c([H])c([H])c(Sc3sc([H])c([H])c3[H])c([H])c2OC([H])([H])C1([H])[H]


 29 32  0  0  0  0  0  0  0  0999 V2000
    0.2224  -53.3020  -22.6323 C   0  0  0  0  0  0  0  0  0  0  0  0
   -0.2799  -54.7347  -22.7160 C   0  0  0  0  0  0  0  0  0  0  0  0
   -1.7108  -54.8043  -22.2800 C   0  0  0  0  0  0  0  0  0  0  0  0
   -1.9006  -54.1733  -21.0495 O   0  0  0  0  0  0  0  0  0  0  0  0
   -0.9442  -53.3419  -20.4666 C   0  0  0  0  0  0  0  0  0  0  0  0
   -1.0659  -52.9675  -19.1223 C   0  0  0  0  0  0  0  0  0  0  0  0
   -0.1335  -52.1452  -18.5195 C   0  0  0  0  0  0  0  0  0  0  0  0
    0.9217  -51.7073  -19.2929 C   0  0  0  0  0  0  0  0  0  0  0  0
    1.0493  -52.0775  -20.6364 C   0  0  0  0  0  0  0  0  0  0  0  0
    0.1127  -52.8903  -21.2029 C   0  0  0  0  0  0  0  0  0  0  0  0
   -0.6624  -52.4609  -23.5113 C   0  0  0  0  0  0  0  0  0  0  0  0
   -0.0559  -52.1473  -24.8027 N   0  0  0  0  0  0  0  0  0  0  0  0
    0.9057  -51.7634  -24.8121 H   0  0  0  0  0  0  0  0  0  0  0  0
   -0.1168  -52.6724  -27.2069 C   0  0  0  0  0  0  0  0  0  0  0  0
   -0.9158  -52.7515  -28.3702 C   0  0  0  0  0  0  0  0  0  0  0  0
   -2.2549  -52.4967  -28.3513 C   0  0  0  0  0  0  0  0  0  0  0  0
   -2.8328  -52.1615  -27.2004 N   0  0  0  0  0  0  0  0  0  0  0  0
   -2.1245  -52.0708  -26.0694 C   0  0  0  0  0  0  0  0  0  0  0  0
   -0.7454  -52.3226  -26.0355 C   0  0  0  0  0  0  0  0  0  0  0  0
    1.9673  -53.5499  -26.4463 O   0  0  0  0  0  0  0  0  0  0  0  0
    1.2808  -52.9895  -27.2949 C   0  0  0  0  0  0  0  0  0  0  0  0
    1.9679  -52.6297  -28.4739 O   0  0  0  0  0  0  0  0  0  0  0  0
    2.6744  -51.9132  -28.4809 H   0  0  0  0  0  0  0  0  0  0  0  0
   -0.3591  -51.7181  -16.8157 S   0  0  0  0  0  0  0  0  0  0  0  0
   -2.0964  -51.8408  -16.3396 C   0  0  0  0  0  0  0  0  0  0  0  0
   -2.9982  -52.7986  -16.7318 C   0  0  0  0  0  0  0  0  0  0  0  0
   -4.2503  -52.6904  -16.2481 C   0  0  0  0  0  0  0  0  0  0  0  0
   -4.5104  -51.6366  -15.4104 C   0  0  0  0  0  0  0  0  0  0  0  0
   -3.0132  -50.8349  -15.3231 S   0  0  0  0  0  0  0  0  0  0  0  0
 20 21  2  0  0  0
 21 22  1  0  0  0
 21 14  1  0  0  0
 14 15  2  0  0  0
 15 16  1  0  0  0
 16 17  2  0  0  0
 17 18  1  0  0  0
 18 19  2  0  0  0
 19 12  1  0  0  0
 12 11  1  0  0  0
 11  1  1  0  0  0
  1  2  1  0  0  0
  2  3  1  0  0  0
  3  4  1  0  0  0
  4  5  1  0  0  0
  5  6  2  0  0  0
  6  7  1  0  0  0
  7 24  1  0  0  0
 24 25  1  0  0  0
 25 26  2  0  0  0
 26 27  1  0  0  0
 27 28  2  0  0  0
 28 29  1  0  0  0
  7  8  2  0  0  0
  8  9  1  0  0  0
  9 10  2  0  0  0
 19 14  1  0  0  0
 10  1  1  0  0  0
 10  5  1  0  0  0
 29 25  1  0  0  0
 22 23  1  0  0  0
 12 13  1  0  0  0
M  END
> <minimizedAffinity>
-8.57611

> <CNNscore>
0.7323557138

> <CNNaffinity>
6.9617805481

> <CNN_VS>
5.0984997749

> <CNNaffinity_variance>
0.0400987454

$$$$
[H]OC(=O)c1c([H])c([H])nc([H])c1N([H])C([H])([H])C1([H])c2c([H])c([H])c(Sc3sc([H])c([H])c3[H])c([H])c2OC([H])([H])C1([H])[H]


 29 32  0  0  0  0  0  0  0  0999 V2000
    1.3713  -51.6707  -24.4626 C   0  0  0  0  0  0  0  0  0  0  0  0
    2.3778  -50.5359  -24.3578 C   0  0  0  0  0  0  0  0  0  0  0  0
    3.5373  -50.9540  -23.5075 C   0  0  0  0  0  0  0  0  0  0  0  0
    3.1112  -51.4915  -22.2919 O   0  0  0  0  0  0  0  0  0  0  0  0
    1.7876  -51.8563  -22.0450 C   0  0  0  0  0  0  0  0  0  0  0  0
    1.3654  -52.1206  -20.7358 C   0  0  0  0  0  0  0  0  0  0  0  0
    0.0607  -52.4839  -20.4625 C   0  0  0  0  0  0  0  0  0  0  0  0
   -0.8097  -52.5761  -21.5289 C   0  0  0  0  0  0  0  0  0  0  0  0
   -0.3945  -52.3135  -22.8391 C   0  0  0  0  0  0  0  0  0  0  0  0
    0.8998  -51.9571  -23.0768 C   0  0  0  0  0  0  0  0  0  0  0  0
    2.0864  -52.8561  -25.0511 C   0  0  0  0  0  0  0  0  0  0  0  0
    1.1860  -53.8007  -25.7077 N   0  0  0  0  0  0  0  0  0  0  0  0
    1.2064  -54.7900  -25.4026 H   0  0  0  0  0  0  0  0  0  0  0  0
    0.7167  -53.2869  -28.0689 C   0  0  0  0  0  0  0  0  0  0  0  0
   -0.2450  -52.8390  -29.0029 C   0  0  0  0  0  0  0  0  0  0  0  0
   -1.5267  -52.5454  -28.6429 C   0  0  0  0  0  0  0  0  0  0  0  0
   -1.8880  -52.6835  -27.3696 N   0  0  0  0  0  0  0  0  0  0  0  0
   -1.0187  -53.1027  -26.4436 C   0  0  0  0  0  0  0  0  0  0  0  0
    0.3102  -53.4175  -26.7623 C   0  0  0  0  0  0  0  0  0  0  0  0
    2.4435  -54.7085  -28.8991 O   0  0  0  0  0  0  0  0  0  0  0  0
    2.0382  -53.6119  -28.5264 C   0  0  0  0  0  0  0  0  0  0  0  0
    2.9988  -52.5786  -28.5624 O   0  0  0  0  0  0  0  0  0  0  0  0
    3.7917  -52.5669  -27.9431 H   0  0  0  0  0  0  0  0  0  0  0  0
   -0.3938  -52.8011  -18.7805 S   0  0  0  0  0  0  0  0  0  0  0  0
   -0.1501  -51.3357  -17.7542 C   0  0  0  0  0  0  0  0  0  0  0  0
    0.6763  -50.2705  -18.0123 C   0  0  0  0  0  0  0  0  0  0  0  0
    0.6980  -49.2813  -17.0987 C   0  0  0  0  0  0  0  0  0  0  0  0
   -0.1047  -49.4273  -15.9968 C   0  0  0  0  0  0  0  0  0  0  0  0
   -0.8595  -50.9272  -16.2657 S   0  0  0  0  0  0  0  0  0  0  0  0
 20 21  2  0  0  0
 21 22  1  0  0  0
 21 14  1  0  0  0
 14 15  2  0  0  0
 15 16  1  0  0  0
 16 17  2  0  0  0
 17 18  1  0  0  0
 18 19  2  0  0  0
 19 12  1  0  0  0
 12 11  1  0  0  0
 11  1  1  0  0  0
  1  2  1  0  0  0
  2  3  1  0  0  0
  3  4  1  0  0  0
  4  5  1  0  0  0
  5  6  2  0  0  0
  6  7  1  0  0  0
  7 24  1  0  0  0
 24 25  1  0  0  0
 25 26  2  0  0  0
 26 27  1  0  0  0
 27 28  2  0  0  0
 28 29  1  0  0  0
  7  8  2  0  0  0
  8  9  1  0  0  0
  9 10  2  0  0  0
 19 14  1  0  0  0
 10  1  1  0  0  0
 10  5  1  0  0  0
 29 25  1  0  0  0
 22 23  1  0  0  0
 12 13  1  0  0  0
M  END
> <minimizedAffinity>
-8.50498

> <CNNscore>
0.5534312725

> <CNNaffinity>
6.8635506630

> <CNN_VS>
3.7985036373

> <CNNaffinity_variance>
0.1148505434

$$$$
[H]OC(=O)c1c([H])c([H])nc([H])c1N([H])C([H])([H])C1([H])c2c([H])c([H])c(Sc3sc([H])c([H])c3[H])c([H])c2OC([H])([H])C1([H])[H]


 29 32  0  0  0  0  0  0  0  0999 V2000
    0.1165  -53.2570  -22.6136 C   0  0  0  0  0  0  0  0  0  0  0  0
   -0.2546  -54.7284  -22.7090 C   0  0  0  0  0  0  0  0  0  0  0  0
   -1.6571  -54.9372  -22.2276 C   0  0  0  0  0  0  0  0  0  0  0  0
   -1.8615  -54.3470  -20.9793 O   0  0  0  0  0  0  0  0  0  0  0  0
   -0.9658  -53.4406  -20.4119 C   0  0  0  0  0  0  0  0  0  0  0  0
   -1.0748  -53.1016  -19.0572 C   0  0  0  0  0  0  0  0  0  0  0  0
   -0.2016  -52.2068  -18.4692 C   0  0  0  0  0  0  0  0  0  0  0  0
    0.7816  -51.6604  -19.2681 C   0  0  0  0  0  0  0  0  0  0  0  0
    0.8961  -51.9948  -20.6221 C   0  0  0  0  0  0  0  0  0  0  0  0
    0.0190  -52.8811  -21.1734 C   0  0  0  0  0  0  0  0  0  0  0  0
   -0.8716  -52.4868  -23.4461 C   0  0  0  0  0  0  0  0  0  0  0  0
   -0.2596  -51.8240  -24.5951 N   0  0  0  0  0  0  0  0  0  0  0  0
   -0.0236  -50.8191  -24.5126 H   0  0  0  0  0  0  0  0  0  0  0  0
   -0.9459  -52.6360  -26.8152 C   0  0  0  0  0  0  0  0  0  0  0  0
   -0.5761  -53.3836  -27.9565 C   0  0  0  0  0  0  0  0  0  0  0  0
    0.6568  -53.9506  -28.0861 C   0  0  0  0  0  0  0  0  0  0  0  0
    1.5448  -53.7975  -27.1069 N   0  0  0  0  0  0  0  0  0  0  0  0
    1.2480  -53.1009  -26.0043 C   0  0  0  0  0  0  0  0  0  0  0  0
   -0.0051  -52.4983  -25.8225 C   0  0  0  0  0  0  0  0  0  0  0  0
   -2.6136  -51.1184  -26.0358 O   0  0  0  0  0  0  0  0  0  0  0  0
   -2.2497  -52.0371  -26.7632 C   0  0  0  0  0  0  0  0  0  0  0  0
   -3.2431  -52.5383  -27.6314 O   0  0  0  0  0  0  0  0  0  0  0  0
   -4.0443  -53.0419  -27.2894 H   0  0  0  0  0  0  0  0  0  0  0  0
   -0.4063  -51.8308  -16.7508 S   0  0  0  0  0  0  0  0  0  0  0  0
   -2.1525  -51.8198  -16.2917 C   0  0  0  0  0  0  0  0  0  0  0  0
   -3.1165  -52.7188  -16.6749 C   0  0  0  0  0  0  0  0  0  0  0  0
   -4.3623  -52.5119  -16.2074 C   0  0  0  0  0  0  0  0  0  0  0  0
   -4.5546  -51.4254  -15.3934 C   0  0  0  0  0  0  0  0  0  0  0  0
   -3.0049  -50.7307  -15.3053 S   0  0  0  0  0  0  0  0  0  0  0  0
 20 21  2  0  0  0
 21 22  1  0  0  0
 21 14  1  0  0  0
 14 15  2  0  0  0
 15 16  1  0  0  0
 16 17  2  0  0  0
 17 18  1  0  0  0
 18 19  2  0  0  0
 19 12  1  0  0  0
 12 11  1  0  0  0
 11  1  1  0  0  0
  1  2  1  0  0  0
  2  3  1  0  0  0
  3  4  1  0  0  0
  4  5  1  0  0  0
  5  6  2  0  0  0
  6  7  1  0  0  0
  7 24  1  0  0  0
 24 25  1  0  0  0
 25 26  2  0  0  0
 26 27  1  0  0  0
 27 28  2  0  0  0
 28 29  1  0  0  0
  7  8  2  0  0  0
  8  9  1  0  0  0
  9 10  2  0  0  0
 19 14  1  0  0  0
 10  1  1  0  0  0
 10  5  1  0  0  0
 29 25  1  0  0  0
 22 23  1  0  0  0
 12 13  1  0  0  0
M  END
> <minimizedAffinity>
-8.37335

> <CNNscore>
0.4421408772

> <CNNaffinity>
6.4600319862

> <CNN_VS>
2.8562443256

> <CNNaffinity_variance>
0.1079171523

$$$$
[H]OC(=O)c1c([H])c([H])nc([H])c1N([H])C([H])([H])C1([H])c2c([H])c([H])c(Sc3sc([H])c([H])c3[H])c([H])c2OC([H])([H])C1([H])[H]


 29 32  0  0  0  0  0  0  0  0999 V2000
   -0.4002  -52.7649  -26.0735 C   0  0  0  0  0  0  0  0  0  0  0  0
   -0.6928  -53.1991  -27.5009 C   0  0  0  0  0  0  0  0  0  0  0  0
    0.4780  -53.9457  -28.0616 C   0  0  0  0  0  0  0  0  0  0  0  0
    1.6678  -53.2383  -27.8820 O   0  0  0  0  0  0  0  0  0  0  0  0
    1.7755  -52.1357  -27.0344 C   0  0  0  0  0  0  0  0  0  0  0  0
    2.8993  -51.3027  -27.1064 C   0  0  0  0  0  0  0  0  0  0  0  0
    3.0320  -50.2041  -26.2791 C   0  0  0  0  0  0  0  0  0  0  0  0
    2.0150  -49.9597  -25.3796 C   0  0  0  0  0  0  0  0  0  0  0  0
    0.8896  -50.7879  -25.3023 C   0  0  0  0  0  0  0  0  0  0  0  0
    0.7876  -51.8646  -26.1324 C   0  0  0  0  0  0  0  0  0  0  0  0
   -0.1049  -54.0053  -25.2753 C   0  0  0  0  0  0  0  0  0  0  0  0
    0.5657  -53.7255  -24.0080 N   0  0  0  0  0  0  0  0  0  0  0  0
    1.5943  -53.6063  -24.0138 H   0  0  0  0  0  0  0  0  0  0  0  0
    0.1797  -52.7342  -21.7881 C   0  0  0  0  0  0  0  0  0  0  0  0
   -0.5610  -52.8020  -20.5861 C   0  0  0  0  0  0  0  0  0  0  0  0
   -1.5512  -53.7189  -20.3930 C   0  0  0  0  0  0  0  0  0  0  0  0
   -1.8325  -54.5811  -21.3667 N   0  0  0  0  0  0  0  0  0  0  0  0
   -1.1627  -54.5626  -22.5243 C   0  0  0  0  0  0  0  0  0  0  0  0
   -0.1361  -53.6401  -22.7726 C   0  0  0  0  0  0  0  0  0  0  0  0
    2.3644  -51.8822  -22.2277 O   0  0  0  0  0  0  0  0  0  0  0  0
    1.1840  -51.7188  -21.9349 C   0  0  0  0  0  0  0  0  0  0  0  0
    0.8030  -50.3761  -21.7256 O   0  0  0  0  0  0  0  0  0  0  0  0
    1.1374  -49.8441  -20.9398 H   0  0  0  0  0  0  0  0  0  0  0  0
    4.4831  -49.2007  -26.4327 S   0  0  0  0  0  0  0  0  0  0  0  0
    4.4714  -48.2742  -27.9823 C   0  0  0  0  0  0  0  0  0  0  0  0
    3.6117  -47.2651  -28.3388 C   0  0  0  0  0  0  0  0  0  0  0  0
    3.7909  -46.7135  -29.5542 C   0  0  0  0  0  0  0  0  0  0  0  0
    4.8127  -47.2082  -30.3232 C   0  0  0  0  0  0  0  0  0  0  0  0
    5.4872  -48.4177  -29.3364 S   0  0  0  0  0  0  0  0  0  0  0  0
 20 21  2  0  0  0
 21 22  1  0  0  0
 21 14  1  0  0  0
 14 15  2  0  0  0
 15 16  1  0  0  0
 16 17  2  0  0  0
 17 18  1  0  0  0
 18 19  2  0  0  0
 19 12  1  0  0  0
 12 11  1  0  0  0
 11  1  1  0  0  0
  1  2  1  0  0  0
  2  3  1  0  0  0
  3  4  1  0  0  0
  4  5  1  0  0  0
  5  6  2  0  0  0
  6  7  1  0  0  0
  7 24  1  0  0  0
 24 25  1  0  0  0
 25 26  2  0  0  0
 26 27  1  0  0  0
 27 28  2  0  0  0
 28 29  1  0  0  0
  7  8  2  0  0  0
  8  9  1  0  0  0
  9 10  2  0  0  0
 19 14  1  0  0  0
 10  1  1  0  0  0
 10  5  1  0  0  0
 29 25  1  0  0  0
 22 23  1  0  0  0
 12 13  1  0  0  0
M  END
> <minimizedAffinity>
-6.85787

> <CNNscore>
0.4284097552

> <CNNaffinity>
6.3275842667

> <CNN_VS>
2.7107987404

> <CNNaffinity_variance>
0.2748877108

$$$$
[H]OC(=O)c1c([H])c([H])nc([H])c1N([H])C([H])([H])C1([H])c2c([H])c([H])c(Sc3sc([H])c([H])c3[H])c([H])c2OC([H])([H])C1([H])[H]


 29 32  0  0  0  0  0  0  0  0999 V2000
   -0.3175  -52.8529  -26.3839 C   0  0  0  0  0  0  0  0  0  0  0  0
   -0.3361  -53.3937  -27.8048 C   0  0  0  0  0  0  0  0  0  0  0  0
    0.9239  -54.1540  -28.0822 C   0  0  0  0  0  0  0  0  0  0  0  0
    2.0544  -53.4112  -27.7380 O   0  0  0  0  0  0  0  0  0  0  0  0
    1.9946  -52.2491  -26.9689 C   0  0  0  0  0  0  0  0  0  0  0  0
    3.1063  -51.4003  -26.8929 C   0  0  0  0  0  0  0  0  0  0  0  0
    3.0749  -50.2430  -26.1387 C   0  0  0  0  0  0  0  0  0  0  0  0
    1.9064  -49.9562  -25.4637 C   0  0  0  0  0  0  0  0  0  0  0  0
    0.7922  -50.7997  -25.5353 C   0  0  0  0  0  0  0  0  0  0  0  0
    0.8541  -51.9348  -26.2881 C   0  0  0  0  0  0  0  0  0  0  0  0
   -0.1674  -54.0269  -25.4555 C   0  0  0  0  0  0  0  0  0  0  0  0
    0.5018  -53.6851  -24.2027 N   0  0  0  0  0  0  0  0  0  0  0  0
    1.5178  -53.4873  -24.2280 H   0  0  0  0  0  0  0  0  0  0  0  0
    0.1030  -52.7282  -21.9700 C   0  0  0  0  0  0  0  0  0  0  0  0
   -0.6132  -52.8409  -20.7565 C   0  0  0  0  0  0  0  0  0  0  0  0
   -1.5521  -53.8081  -20.5535 C   0  0  0  0  0  0  0  0  0  0  0  0
   -1.8054  -54.6777  -21.5284 N   0  0  0  0  0  0  0  0  0  0  0  0
   -1.1568  -54.6181  -22.6967 C   0  0  0  0  0  0  0  0  0  0  0  0
   -0.1827  -53.6431  -22.9554 C   0  0  0  0  0  0  0  0  0  0  0  0
    0.8594  -50.4658  -21.9324 O   0  0  0  0  0  0  0  0  0  0  0  0
    1.0518  -51.6621  -22.1262 C   0  0  0  0  0  0  0  0  0  0  0  0
    2.3569  -51.9943  -22.5480 O   0  0  0  0  0  0  0  0  0  0  0  0
    2.7088  -51.7264  -23.4518 H   0  0  0  0  0  0  0  0  0  0  0  0
    4.5221  -49.2234  -26.0944 S   0  0  0  0  0  0  0  0  0  0  0  0
    4.3573  -47.9145  -24.8617 C   0  0  0  0  0  0  0  0  0  0  0  0
    3.7074  -46.7143  -25.0083 C   0  0  0  0  0  0  0  0  0  0  0  0
    3.7128  -45.8854  -23.9469 C   0  0  0  0  0  0  0  0  0  0  0  0
    4.3649  -46.3138  -22.8195 C   0  0  0  0  0  0  0  0  0  0  0  0
    4.9463  -47.8472  -23.2698 S   0  0  0  0  0  0  0  0  0  0  0  0
 20 21  2  0  0  0
 21 22  1  0  0  0
 21 14  1  0  0  0
 14 15  2  0  0  0
 15 16  1  0  0  0
 16 17  2  0  0  0
 17 18  1  0  0  0
 18 19  2  0  0  0
 19 12  1  0  0  0
 12 11  1  0  0  0
 11  1  1  0  0  0
  1  2  1  0  0  0
  2  3  1  0  0  0
  3  4  1  0  0  0
  4  5  1  0  0  0
  5  6  2  0  0  0
  6  7  1  0  0  0
  7 24  1  0  0  0
 24 25  1  0  0  0
 25 26  2  0  0  0
 26 27  1  0  0  0
 27 28  2  0  0  0
 28 29  1  0  0  0
  7  8  2  0  0  0
  8  9  1  0  0  0
  9 10  2  0  0  0
 19 14  1  0  0  0
 10  1  1  0  0  0
 10  5  1  0  0  0
 29 25  1  0  0  0
 22 23  1  0  0  0
 12 13  1  0  0  0
M  END
> <minimizedAffinity>
-6.60922

> <CNNscore>
0.4259718955

> <CNNaffinity>
6.2611131668

> <CNN_VS>
2.6670582294

> <CNNaffinity_variance>
0.1279154122

$$$$
[H]OC(=O)c1c([H])c([H])nc([H])c1N([H])C([H])([H])C1([H])c2c([H])c([H])c(Sc3sc([H])c([H])c3[H])c([H])c2OC([H])([H])C1([H])[H]


 29 32  0  0  0  0  0  0  0  0999 V2000
   -0.0298  -53.4378  -24.0305 C   0  0  0  0  0  0  0  0  0  0  0  0
   -0.1657  -54.9481  -24.1411 C   0  0  0  0  0  0  0  0  0  0  0  0
   -1.4797  -55.3890  -23.5742 C   0  0  0  0  0  0  0  0  0  0  0  0
   -1.6891  -54.8600  -22.2997 O   0  0  0  0  0  0  0  0  0  0  0  0
   -0.9133  -53.8297  -21.7681 C   0  0  0  0  0  0  0  0  0  0  0  0
   -0.9811  -53.5347  -20.4004 C   0  0  0  0  0  0  0  0  0  0  0  0
   -0.2242  -52.5198  -19.8472 C   0  0  0  0  0  0  0  0  0  0  0  0
    0.6007  -51.8086  -20.6940 C   0  0  0  0  0  0  0  0  0  0  0  0
    0.6732  -52.0982  -22.0612 C   0  0  0  0  0  0  0  0  0  0  0  0
   -0.0863  -53.1059  -22.5774 C   0  0  0  0  0  0  0  0  0  0  0  0
   -1.1841  -52.8244  -24.7750 C   0  0  0  0  0  0  0  0  0  0  0  0
   -0.7638  -51.8780  -25.8053 N   0  0  0  0  0  0  0  0  0  0  0  0
   -1.4964  -51.3795  -26.3409 H   0  0  0  0  0  0  0  0  0  0  0  0
    1.2771  -52.3051  -27.1138 C   0  0  0  0  0  0  0  0  0  0  0  0
    2.6515  -52.0146  -27.2714 C   0  0  0  0  0  0  0  0  0  0  0  0
    3.3005  -51.1162  -26.4775 C   0  0  0  0  0  0  0  0  0  0  0  0
    2.6203  -50.4899  -25.5205 N   0  0  0  0  0  0  0  0  0  0  0  0
    1.3184  -50.7270  -25.3263 C   0  0  0  0  0  0  0  0  0  0  0  0
    0.6051  -51.6411  -26.1152 C   0  0  0  0  0  0  0  0  0  0  0  0
    0.1485  -54.3173  -27.7211 O   0  0  0  0  0  0  0  0  0  0  0  0
    0.6514  -53.2360  -28.0100 C   0  0  0  0  0  0  0  0  0  0  0  0
    0.5931  -52.8992  -29.3792 O   0  0  0  0  0  0  0  0  0  0  0  0
    1.1197  -53.4015  -30.0740 H   0  0  0  0  0  0  0  0  0  0  0  0
   -0.3670  -52.2098  -18.1095 S   0  0  0  0  0  0  0  0  0  0  0  0
    0.7666  -50.9051  -17.5870 C   0  0  0  0  0  0  0  0  0  0  0  0
    2.1323  -50.8891  -17.7239 C   0  0  0  0  0  0  0  0  0  0  0  0
    2.7783  -49.8034  -17.2575 C   0  0  0  0  0  0  0  0  0  0  0  0
    2.0158  -48.8153  -16.6898 C   0  0  0  0  0  0  0  0  0  0  0  0
    0.4338  -49.4250  -16.8225 S   0  0  0  0  0  0  0  0  0  0  0  0
 20 21  2  0  0  0
 21 22  1  0  0  0
 21 14  1  0  0  0
 14 15  2  0  0  0
 15 16  1  0  0  0
 16 17  2  0  0  0
 17 18  1  0  0  0
 18 19  2  0  0  0
 19 12  1  0  0  0
 12 11  1  0  0  0
 11  1  1  0  0  0
  1  2  1  0  0  0
  2  3  1  0  0  0
  3  4  1  0  0  0
  4  5  1  0  0  0
  5  6  2  0  0  0
  6  7  1  0  0  0
  7 24  1  0  0  0
 24 25  1  0  0  0
 25 26  2  0  0  0
 26 27  1  0  0  0
 27 28  2  0  0  0
 28 29  1  0  0  0
  7  8  2  0  0  0
  8  9  1  0  0  0
  9 10  2  0  0  0
 19 14  1  0  0  0
 10  1  1  0  0  0
 10  5  1  0  0  0
 29 25  1  0  0  0
 22 23  1  0  0  0
 12 13  1  0  0  0
M  END
> <minimizedAffinity>
-6.92598

> <CNNscore>
0.4127845466

> <CNNaffinity>
6.6739664078

> <CNN_VS>
2.7549102306

> <CNNaffinity_variance>
0.1720499694

$$$$
[H]OC(=O)c1c([H])c([H])nc([H])c1N([H])C([H])([H])C1([H])c2c([H])c([H])c(Sc3sc([H])c([H])c3[H])c([H])c2OC([H])([H])C1([H])[H]


 29 32  0  0  0  0  0  0  0  0999 V2000
    0.3167  -53.3196  -22.4298 C   0  0  0  0  0  0  0  0  0  0  0  0
   -0.1163  -54.7615  -22.6423 C   0  0  0  0  0  0  0  0  0  0  0  0
   -1.5877  -54.8976  -22.3994 C   0  0  0  0  0  0  0  0  0  0  0  0
   -1.9574  -54.3346  -21.1769 O   0  0  0  0  0  0  0  0  0  0  0  0
   -1.1155  -53.5034  -20.4379 C   0  0  0  0  0  0  0  0  0  0  0  0
   -1.4226  -53.2000  -19.1053 C   0  0  0  0  0  0  0  0  0  0  0  0
   -0.6068  -52.3796  -18.3502 C   0  0  0  0  0  0  0  0  0  0  0  0
    0.5216  -51.8709  -18.9595 C   0  0  0  0  0  0  0  0  0  0  0  0
    0.8343  -52.1700  -20.2903 C   0  0  0  0  0  0  0  0  0  0  0  0
    0.0093  -52.9828  -21.0096 C   0  0  0  0  0  0  0  0  0  0  0  0
   -0.4791  -52.4643  -23.3774 C   0  0  0  0  0  0  0  0  0  0  0  0
    0.3163  -51.9466  -24.4880 N   0  0  0  0  0  0  0  0  0  0  0  0
   -0.1240  -51.8951  -25.4238 H   0  0  0  0  0  0  0  0  0  0  0  0
    2.7146  -52.1291  -25.0116 C   0  0  0  0  0  0  0  0  0  0  0  0
    4.0178  -51.6674  -24.7172 C   0  0  0  0  0  0  0  0  0  0  0  0
    4.2511  -50.6810  -23.8056 C   0  0  0  0  0  0  0  0  0  0  0  0
    3.2194  -50.1321  -23.1691 N   0  0  0  0  0  0  0  0  0  0  0  0
    1.9653  -50.5310  -23.4080 C   0  0  0  0  0  0  0  0  0  0  0  0
    1.6722  -51.5411  -24.3355 C   0  0  0  0  0  0  0  0  0  0  0  0
    3.2139  -53.3112  -27.0229 O   0  0  0  0  0  0  0  0  0  0  0  0
    2.5415  -53.1465  -26.0098 C   0  0  0  0  0  0  0  0  0  0  0  0
    1.4915  -54.0731  -25.8350 O   0  0  0  0  0  0  0  0  0  0  0  0
    0.6889  -54.0891  -26.4416 H   0  0  0  0  0  0  0  0  0  0  0  0
   -1.0649  -52.0446  -16.6726 S   0  0  0  0  0  0  0  0  0  0  0  0
   -0.0789  -50.6966  -15.9866 C   0  0  0  0  0  0  0  0  0  0  0  0
   -0.2297  -49.3534  -16.2264 C   0  0  0  0  0  0  0  0  0  0  0  0
    0.6266  -48.5234  -15.6010 C   0  0  0  0  0  0  0  0  0  0  0  0
    1.5688  -49.0931  -14.7838 C   0  0  0  0  0  0  0  0  0  0  0  0
    1.2348  -50.7557  -14.9112 S   0  0  0  0  0  0  0  0  0  0  0  0
 20 21  2  0  0  0
 21 22  1  0  0  0
 21 14  1  0  0  0
 14 15  2  0  0  0
 15 16  1  0  0  0
 16 17  2  0  0  0
 17 18  1  0  0  0
 18 19  2  0  0  0
 19 12  1  0  0  0
 12 11  1  0  0  0
 11  1  1  0  0  0
  1  2  1  0  0  0
  2  3  1  0  0  0
  3  4  1  0  0  0
  4  5  1  0  0  0
  5  6  2  0  0  0
  6  7  1  0  0  0
  7 24  1  0  0  0
 24 25  1  0  0  0
 25 26  2  0  0  0
 26 27  1  0  0  0
 27 28  2  0  0  0
 28 29  1  0  0  0
  7  8  2  0  0  0
  8  9  1  0  0  0
  9 10  2  0  0  0
 19 14  1  0  0  0
 10  1  1  0  0  0
 10  5  1  0  0  0
 29 25  1  0  0  0
 22 23  1  0  0  0
 12 13  1  0  0  0
M  END
> <minimizedAffinity>
-6.95587

> <CNNscore>
0.3180613816

> <CNNaffinity>
6.4172124863

> <CNN_VS>
2.0410673618

> <CNNaffinity_variance>
0.2192916870

$$$$
[H]OC(=O)c1c([H])c([H])nc([H])c1N([H])C([H])([H])C1([H])c2c([H])c([H])c(Sc3sc([H])c([H])c3[H])c([H])c2OC([H])([H])C1([H])[H]


 29 32  0  0  0  0  0  0  0  0999 V2000
    2.9407  -49.7484  -22.2197 C   0  0  0  0  0  0  0  0  0  0  0  0
    4.0798  -48.7658  -22.4409 C   0  0  0  0  0  0  0  0  0  0  0  0
    3.7355  -47.8207  -23.5503 C   0  0  0  0  0  0  0  0  0  0  0  0
    3.3042  -48.5046  -24.6880 O   0  0  0  0  0  0  0  0  0  0  0  0
    2.9626  -49.8570  -24.6774 C   0  0  0  0  0  0  0  0  0  0  0  0
    2.8115  -50.5518  -25.8843 C   0  0  0  0  0  0  0  0  0  0  0  0
    2.4736  -51.8913  -25.9034 C   0  0  0  0  0  0  0  0  0  0  0  0
    2.2909  -52.5178  -24.6878 C   0  0  0  0  0  0  0  0  0  0  0  0
    2.4402  -51.8296  -23.4786 C   0  0  0  0  0  0  0  0  0  0  0  0
    2.7742  -50.5079  -23.4926 C   0  0  0  0  0  0  0  0  0  0  0  0
    1.7089  -48.9472  -21.8979 C   0  0  0  0  0  0  0  0  0  0  0  0
    1.0108  -49.4229  -20.7061 N   0  0  0  0  0  0  0  0  0  0  0  0
    0.8829  -48.7642  -19.9175 H   0  0  0  0  0  0  0  0  0  0  0  0
    1.0240  -51.6526  -19.6630 C   0  0  0  0  0  0  0  0  0  0  0  0
    0.4964  -52.9637  -19.6911 C   0  0  0  0  0  0  0  0  0  0  0  0
   -0.4629  -53.3425  -20.5826 C   0  0  0  0  0  0  0  0  0  0  0  0
   -0.9203  -52.4505  -21.4578 N   0  0  0  0  0  0  0  0  0  0  0  0
   -0.4559  -51.1963  -21.4765 C   0  0  0  0  0  0  0  0  0  0  0  0
    0.5300  -50.7568  -20.5813 C   0  0  0  0  0  0  0  0  0  0  0  0
    1.8235  -50.6948  -17.6295 O   0  0  0  0  0  0  0  0  0  0  0  0
    2.0068  -51.3148  -18.6724 C   0  0  0  0  0  0  0  0  0  0  0  0
    3.3383  -51.7265  -18.8941 O   0  0  0  0  0  0  0  0  0  0  0  0
    4.0752  -51.0676  -19.0818 H   0  0  0  0  0  0  0  0  0  0  0  0
    2.3018  -52.6976  -27.4707 S   0  0  0  0  0  0  0  0  0  0  0  0
    0.5765  -52.7236  -28.0024 C   0  0  0  0  0  0  0  0  0  0  0  0
    0.1009  -52.9894  -29.2623 C   0  0  0  0  0  0  0  0  0  0  0  0
   -1.2349  -52.9526  -29.4292 C   0  0  0  0  0  0  0  0  0  0  0  0
   -1.9966  -52.6539  -28.3289 C   0  0  0  0  0  0  0  0  0  0  0  0
   -0.8366  -52.4351  -27.1048 S   0  0  0  0  0  0  0  0  0  0  0  0
 20 21  2  0  0  0
 21 22  1  0  0  0
 21 14  1  0  0  0
 14 15  2  0  0  0
 15 16  1  0  0  0
 16 17  2  0  0  0
 17 18  1  0  0  0
 18 19  2  0  0  0
 19 12  1  0  0  0
 12 11  1  0  0  0
 11  1  1  0  0  0
  1  2  1  0  0  0
  2  3  1  0  0  0
  3  4  1  0  0  0
  4  5  1  0  0  0
  5  6  2  0  0  0
  6  7  1  0  0  0
  7 24  1  0  0  0
 24 25  1  0  0  0
 25 26  2  0  0  0
 26 27  1  0  0  0
 27 28  2  0  0  0
 28 29  1  0  0  0
  7  8  2  0  0  0
  8  9  1  0  0  0
  9 10  2  0  0  0
 19 14  1  0  0  0
 10  1  1  0  0  0
 10  5  1  0  0  0
 29 25  1  0  0  0
 22 23  1  0  0  0
 12 13  1  0  0  0
M  END
> <minimizedAffinity>
-6.94999

> <CNNscore>
0.2576757967

> <CNNaffinity>
6.2289700508

> <CNN_VS>
1.6050548553

> <CNNaffinity_variance>
0.2143763006

$$$$
[H]N=c1c(C(=O)N([H])C([H])([H])c2oc([H])c([H])c2[H])c([H])c2c(=O)n3c([H])c([H])c([H])c([H])c3nc2n1C([H])([H])c1c([H])c([H])c(C([H])([H])[H])c([H])c1[H]


 35 39  0  0  0  0  0  0  0  0999 V2000
    2.0680  -51.6917  -21.8903 N   0  0  0  0  0  0  0  0  0  0  0  0
    1.6920  -52.2528  -23.0711 C   0  0  0  0  0  0  0  0  0  0  0  0
    2.3988  -51.9747  -24.0665 N   0  0  0  0  0  0  0  0  0  0  0  0
    0.5755  -53.0321  -23.2287 C   0  0  0  0  0  0  0  0  0  0  0  0
   -0.2092  -53.2420  -22.0898 C   0  0  0  0  0  0  0  0  0  0  0  0
    0.1325  -52.6969  -20.8961 C   0  0  0  0  0  0  0  0  0  0  0  0
   -0.6603  -52.9027  -19.7951 C   0  0  0  0  0  0  0  0  0  0  0  0
   -1.6995  -53.6040  -19.8564 O   0  0  0  0  0  0  0  0  0  0  0  0
   -0.3329  -52.3494  -18.6164 N   0  0  0  0  0  0  0  0  0  0  0  0
   -1.1021  -52.5426  -17.5259 C   0  0  0  0  0  0  0  0  0  0  0  0
   -0.8133  -52.0037  -16.3092 C   0  0  0  0  0  0  0  0  0  0  0  0
    0.3256  -51.2159  -16.1744 C   0  0  0  0  0  0  0  0  0  0  0  0
    1.0869  -51.0395  -17.3053 C   0  0  0  0  0  0  0  0  0  0  0  0
    0.7790  -51.5930  -18.5290 C   0  0  0  0  0  0  0  0  0  0  0  0
    1.5413  -51.4045  -19.6163 N   0  0  0  0  0  0  0  0  0  0  0  0
    1.2794  -51.9259  -20.8300 C   0  0  0  0  0  0  0  0  0  0  0  0
    2.3740  -52.2223  -25.0250 H   0  0  0  0  0  0  0  0  0  0  0  0
    0.1612  -53.7428  -24.4105 C   0  0  0  0  0  0  0  0  0  0  0  0
   -1.0332  -54.2460  -24.3471 O   0  0  0  0  0  0  0  0  0  0  0  0
    0.8939  -53.9518  -25.5922 N   0  0  0  0  0  0  0  0  0  0  0  0
    1.8589  -53.6038  -25.6708 H   0  0  0  0  0  0  0  0  0  0  0  0
    0.3404  -54.6889  -26.7223 C   0  0  0  0  0  0  0  0  0  0  0  0
   -0.2723  -53.7994  -27.7188 C   0  0  0  0  0  0  0  0  0  0  0  0
    0.2778  -53.3693  -28.8956 C   0  0  0  0  0  0  0  0  0  0  0  0
   -0.6618  -52.5387  -29.5238 C   0  0  0  0  0  0  0  0  0  0  0  0
   -1.7346  -52.5235  -28.6684 C   0  0  0  0  0  0  0  0  0  0  0  0
   -1.4667  -53.2656  -27.6371 O   0  0  0  0  0  0  0  0  0  0  0  0
    3.2274  -50.8533  -21.7910 C   0  0  0  0  0  0  0  0  0  0  0  0
    2.8080  -45.3851  -23.6874 C   0  0  0  0  0  0  0  0  0  0  0  0
    2.8697  -46.7727  -23.1495 C   0  0  0  0  0  0  0  0  0  0  0  0
    2.0509  -47.2442  -22.1777 C   0  0  0  0  0  0  0  0  0  0  0  0
    2.1603  -48.5692  -21.7154 C   0  0  0  0  0  0  0  0  0  0  0  0
    3.0842  -49.4481  -22.2098 C   0  0  0  0  0  0  0  0  0  0  0  0
    3.9134  -48.9284  -23.2130 C   0  0  0  0  0  0  0  0  0  0  0  0
    3.8102  -47.6219  -23.6726 C   0  0  0  0  0  0  0  0  0  0  0  0
 29 30  1  0  0  0
 30 31  2  0  0  0
 31 32  1  0  0  0
 32 33  2  0  0  0
 33 28  1  0  0  0
 28  1  1  0  0  0
  1  2  1  0  0  0
  2  3  2  0  0  0
  2  4  1  0  0  0
  4 18  1  0  0  0
 18 19  2  0  0  0
 18 20  1  0  0  0
 20 22  1  0  0  0
 22 23  1  0  0  0
 23 24  2  0  0  0
 24 25  1  0  0  0
 25 26  2  0  0  0
 26 27  1  0  0  0
  4  5  2  0  0  0
  5  6  1  0  0  0
  6  7  1  0  0  0
  7  8  2  0  0  0
  7  9  1  0  0  0
  9 10  1  0  0  0
 10 11  2  0  0  0
 11 12  1  0  0  0
 12 13  2  0  0  0
 13 14  1  0  0  0
 14 15  2  0  0  0
 15 16  1  0  0  0
 33 34  1  0  0  0
 34 35  2  0  0  0
 35 30  1  0  0  0
 16  1  1  0  0  0
 27 23  1  0  0  0
 16  6  2  0  0  0
 14  9  1  0  0  0
  3 17  1  0  0  0
 20 21  1  0  0  0
M  END
> <minimizedAffinity>
-9.30732

> <CNNscore>
0.5842980742

> <CNNaffinity>
7.3271217346

> <CNN_VS>
4.2812232971

> <CNNaffinity_variance>
0.3631068766

$$$$
[H]N=c1c(C(=O)N([H])C([H])([H])c2oc([H])c([H])c2[H])c([H])c2c(=O)n3c([H])c([H])c([H])c([H])c3nc2n1C([H])([H])c1c([H])c([H])c(C([H])([H])[H])c([H])c1[H]


 35 39  0  0  0  0  0  0  0  0999 V2000
    0.1372  -52.8064  -22.6128 N   0  0  0  0  0  0  0  0  0  0  0  0
   -0.2273  -52.7563  -21.3032 C   0  0  0  0  0  0  0  0  0  0  0  0
   -1.0436  -53.6257  -20.9216 N   0  0  0  0  0  0  0  0  0  0  0  0
    0.1952  -51.7915  -20.4260 C   0  0  0  0  0  0  0  0  0  0  0  0
    1.0484  -50.8083  -20.9379 C   0  0  0  0  0  0  0  0  0  0  0  0
    1.4315  -50.8241  -22.2385 C   0  0  0  0  0  0  0  0  0  0  0  0
    2.2566  -49.8406  -22.7234 C   0  0  0  0  0  0  0  0  0  0  0  0
    2.6871  -48.9217  -21.9847 O   0  0  0  0  0  0  0  0  0  0  0  0
    2.6227  -49.8449  -24.0152 N   0  0  0  0  0  0  0  0  0  0  0  0
    3.4328  -48.8852  -24.5060 C   0  0  0  0  0  0  0  0  0  0  0  0
    3.8324  -48.8454  -25.8071 C   0  0  0  0  0  0  0  0  0  0  0  0
    3.3899  -49.8359  -26.6784 C   0  0  0  0  0  0  0  0  0  0  0  0
    2.5658  -50.7984  -26.1455 C   0  0  0  0  0  0  0  0  0  0  0  0
    2.1717  -50.8227  -24.8254 C   0  0  0  0  0  0  0  0  0  0  0  0
    1.3668  -51.7755  -24.3322 N   0  0  0  0  0  0  0  0  0  0  0  0
    0.9576  -51.8388  -23.0508 C   0  0  0  0  0  0  0  0  0  0  0  0
   -1.4805  -53.8346  -20.0579 H   0  0  0  0  0  0  0  0  0  0  0  0
   -0.0589  -51.7208  -19.0105 C   0  0  0  0  0  0  0  0  0  0  0  0
    0.3698  -50.6379  -18.4383 O   0  0  0  0  0  0  0  0  0  0  0  0
   -0.6978  -52.6760  -18.2003 N   0  0  0  0  0  0  0  0  0  0  0  0
   -1.0187  -53.5658  -18.6050 H   0  0  0  0  0  0  0  0  0  0  0  0
   -0.8963  -52.4657  -16.7709 C   0  0  0  0  0  0  0  0  0  0  0  0
   -2.2986  -52.1741  -16.4422 C   0  0  0  0  0  0  0  0  0  0  0  0
   -3.4024  -52.8980  -16.8031 C   0  0  0  0  0  0  0  0  0  0  0  0
   -4.5266  -52.2499  -16.2705 C   0  0  0  0  0  0  0  0  0  0  0  0
   -4.0162  -51.1593  -15.6125 C   0  0  0  0  0  0  0  0  0  0  0  0
   -2.7237  -51.1539  -15.7374 O   0  0  0  0  0  0  0  0  0  0  0  0
   -0.3655  -53.8189  -23.4956 C   0  0  0  0  0  0  0  0  0  0  0  0
   -0.8698  -52.6764  -29.1626 C   0  0  0  0  0  0  0  0  0  0  0  0
   -0.7779  -52.9115  -27.6946 C   0  0  0  0  0  0  0  0  0  0  0  0
   -1.4647  -52.1970  -26.7699 C   0  0  0  0  0  0  0  0  0  0  0  0
   -1.3344  -52.4725  -25.3957 C   0  0  0  0  0  0  0  0  0  0  0  0
   -0.5204  -53.4616  -24.9165 C   0  0  0  0  0  0  0  0  0  0  0  0
    0.1737  -54.1805  -25.8991 C   0  0  0  0  0  0  0  0  0  0  0  0
    0.0493  -53.9128  -27.2561 C   0  0  0  0  0  0  0  0  0  0  0  0
 29 30  1  0  0  0
 30 31  2  0  0  0
 31 32  1  0  0  0
 32 33  2  0  0  0
 33 28  1  0  0  0
 28  1  1  0  0  0
  1  2  1  0  0  0
  2  3  2  0  0  0
  2  4  1  0  0  0
  4 18  1  0  0  0
 18 19  2  0  0  0
 18 20  1  0  0  0
 20 22  1  0  0  0
 22 23  1  0  0  0
 23 24  2  0  0  0
 24 25  1  0  0  0
 25 26  2  0  0  0
 26 27  1  0  0  0
  4  5  2  0  0  0
  5  6  1  0  0  0
  6  7  1  0  0  0
  7  8  2  0  0  0
  7  9  1  0  0  0
  9 10  1  0  0  0
 10 11  2  0  0  0
 11 12  1  0  0  0
 12 13  2  0  0  0
 13 14  1  0  0  0
 14 15  2  0  0  0
 15 16  1  0  0  0
 33 34  1  0  0  0
 34 35  2  0  0  0
 35 30  1  0  0  0
 16  1  1  0  0  0
 27 23  1  0  0  0
 16  6  2  0  0  0
 14  9  1  0  0  0
  3 17  1  0  0  0
 20 21  1  0  0  0
M  END
> <minimizedAffinity>
-9.87217

> <CNNscore>
0.5712482333

> <CNNaffinity>
6.9819059372

> <CNN_VS>
3.9884014130

> <CNNaffinity_variance>
0.4034760594

$$$$
[H]N=c1c(C(=O)N([H])C([H])([H])c2oc([H])c([H])c2[H])c([H])c2c(=O)n3c([H])c([H])c([H])c([H])c3nc2n1C([H])([H])c1c([H])c([H])c(C([H])([H])[H])c([H])c1[H]


 35 39  0  0  0  0  0  0  0  0999 V2000
   -0.1123  -53.1888  -22.1069 N   0  0  0  0  0  0  0  0  0  0  0  0
   -0.5897  -53.3066  -20.8385 C   0  0  0  0  0  0  0  0  0  0  0  0
   -1.3404  -54.2841  -20.6176 N   0  0  0  0  0  0  0  0  0  0  0  0
   -0.3457  -52.3999  -19.8400 C   0  0  0  0  0  0  0  0  0  0  0  0
    0.4409  -51.2930  -20.1760 C   0  0  0  0  0  0  0  0  0  0  0  0
    0.9323  -51.1404  -21.4306 C   0  0  0  0  0  0  0  0  0  0  0  0
    1.6886  -50.0387  -21.7425 C   0  0  0  0  0  0  0  0  0  0  0  0
    1.9570  -49.1625  -20.8848 O   0  0  0  0  0  0  0  0  0  0  0  0
    2.1613  -49.8771  -22.9888 N   0  0  0  0  0  0  0  0  0  0  0  0
    2.9058  -48.7998  -23.3102 C   0  0  0  0  0  0  0  0  0  0  0  0
    3.4079  -48.5905  -24.5585 C   0  0  0  0  0  0  0  0  0  0  0  0
    3.1463  -49.5252  -25.5554 C   0  0  0  0  0  0  0  0  0  0  0  0
    2.3847  -50.6110  -25.1938 C   0  0  0  0  0  0  0  0  0  0  0  0
    1.8848  -50.8063  -23.9247 C   0  0  0  0  0  0  0  0  0  0  0  0
    1.1446  -51.8765  -23.5999 N   0  0  0  0  0  0  0  0  0  0  0  0
    0.6371  -52.1081  -22.3742 C   0  0  0  0  0  0  0  0  0  0  0  0
   -1.8249  -54.6201  -19.8220 H   0  0  0  0  0  0  0  0  0  0  0  0
   -0.7248  -52.4975  -18.4544 C   0  0  0  0  0  0  0  0  0  0  0  0
   -1.5605  -53.4541  -18.1892 O   0  0  0  0  0  0  0  0  0  0  0  0
   -0.3045  -51.6855  -17.3861 N   0  0  0  0  0  0  0  0  0  0  0  0
    0.3272  -50.8917  -17.5574 H   0  0  0  0  0  0  0  0  0  0  0  0
   -0.7666  -51.9075  -16.0208 C   0  0  0  0  0  0  0  0  0  0  0  0
   -2.0256  -51.2038  -15.7396 C   0  0  0  0  0  0  0  0  0  0  0  0
   -2.1750  -49.9611  -15.1862 C   0  0  0  0  0  0  0  0  0  0  0  0
   -3.5500  -49.6963  -15.1048 C   0  0  0  0  0  0  0  0  0  0  0  0
   -4.1481  -50.8169  -15.6238 C   0  0  0  0  0  0  0  0  0  0  0  0
   -3.2297  -51.6636  -15.9784 O   0  0  0  0  0  0  0  0  0  0  0  0
   -0.4303  -54.1500  -23.1229 C   0  0  0  0  0  0  0  0  0  0  0  0
   -0.8328  -52.4671  -28.6618 C   0  0  0  0  0  0  0  0  0  0  0  0
   -0.7649  -52.8410  -27.2215 C   0  0  0  0  0  0  0  0  0  0  0  0
   -1.4334  -52.1893  -26.2388 C   0  0  0  0  0  0  0  0  0  0  0  0
   -1.3277  -52.5962  -24.8955 C   0  0  0  0  0  0  0  0  0  0  0  0
   -0.5569  -53.6565  -24.5053 C   0  0  0  0  0  0  0  0  0  0  0  0
    0.1192  -54.3075  -25.5459 C   0  0  0  0  0  0  0  0  0  0  0  0
    0.0190  -53.9101  -26.8729 C   0  0  0  0  0  0  0  0  0  0  0  0
 29 30  1  0  0  0
 30 31  2  0  0  0
 31 32  1  0  0  0
 32 33  2  0  0  0
 33 28  1  0  0  0
 28  1  1  0  0  0
  1  2  1  0  0  0
  2  3  2  0  0  0
  2  4  1  0  0  0
  4 18  1  0  0  0
 18 19  2  0  0  0
 18 20  1  0  0  0
 20 22  1  0  0  0
 22 23  1  0  0  0
 23 24  2  0  0  0
 24 25  1  0  0  0
 25 26  2  0  0  0
 26 27  1  0  0  0
  4  5  2  0  0  0
  5  6  1  0  0  0
  6  7  1  0  0  0
  7  8  2  0  0  0
  7  9  1  0  0  0
  9 10  1  0  0  0
 10 11  2  0  0  0
 11 12  1  0  0  0
 12 13  2  0  0  0
 13 14  1  0  0  0
 14 15  2  0  0  0
 15 16  1  0  0  0
 33 34  1  0  0  0
 34 35  2  0  0  0
 35 30  1  0  0  0
 16  1  1  0  0  0
 27 23  1  0  0  0
 16  6  2  0  0  0
 14  9  1  0  0  0
  3 17  1  0  0  0
 20 21  1  0  0  0
M  END
> <minimizedAffinity>
-9.44076

> <CNNscore>
0.5059207678

> <CNNaffinity>
6.8008298874

> <CNN_VS>
3.4406809807

> <CNNaffinity_variance>
0.4004164636

$$$$
[H]N=c1c(C(=O)N([H])C([H])([H])c2oc([H])c([H])c2[H])c([H])c2c(=O)n3c([H])c([H])c([H])c([H])c3nc2n1C([H])([H])c1c([H])c([H])c(C([H])([H])[H])c([H])c1[H]


 35 39  0  0  0  0  0  0  0  0999 V2000
    1.2813  -52.3021  -22.9150 N   0  0  0  0  0  0  0  0  0  0  0  0
    0.5051  -52.8243  -21.9274 C   0  0  0  0  0  0  0  0  0  0  0  0
    0.1375  -54.0115  -22.0809 N   0  0  0  0  0  0  0  0  0  0  0  0
    0.0688  -52.1149  -20.8388 C   0  0  0  0  0  0  0  0  0  0  0  0
    0.4567  -50.7727  -20.7680 C   0  0  0  0  0  0  0  0  0  0  0  0
    1.2281  -50.2167  -21.7347 C   0  0  0  0  0  0  0  0  0  0  0  0
    1.5837  -48.8939  -21.6532 C   0  0  0  0  0  0  0  0  0  0  0  0
    1.2247  -48.1758  -20.6884 O   0  0  0  0  0  0  0  0  0  0  0  0
    2.3329  -48.3372  -22.6184 N   0  0  0  0  0  0  0  0  0  0  0  0
    2.6901  -47.0386  -22.5521 C   0  0  0  0  0  0  0  0  0  0  0  0
    3.4480  -46.4280  -23.5044 C   0  0  0  0  0  0  0  0  0  0  0  0
    3.8787  -47.1693  -24.6004 C   0  0  0  0  0  0  0  0  0  0  0  0
    3.4968  -48.4893  -24.6365 C   0  0  0  0  0  0  0  0  0  0  0  0
    2.7291  -49.0906  -23.6631 C   0  0  0  0  0  0  0  0  0  0  0  0
    2.3718  -50.3819  -23.7240 N   0  0  0  0  0  0  0  0  0  0  0  0
    1.6245  -51.0101  -22.7965 C   0  0  0  0  0  0  0  0  0  0  0  0
   -0.4149  -54.6399  -21.5514 H   0  0  0  0  0  0  0  0  0  0  0  0
   -0.6661  -52.6119  -19.7047 C   0  0  0  0  0  0  0  0  0  0  0  0
   -1.6201  -53.4403  -20.0004 O   0  0  0  0  0  0  0  0  0  0  0  0
   -0.4723  -52.2997  -18.3475 N   0  0  0  0  0  0  0  0  0  0  0  0
    0.2472  -51.6182  -18.0713 H   0  0  0  0  0  0  0  0  0  0  0  0
   -1.2923  -52.8902  -17.2959 C   0  0  0  0  0  0  0  0  0  0  0  0
   -1.8916  -51.8722  -16.4219 C   0  0  0  0  0  0  0  0  0  0  0  0
   -3.1811  -51.8260  -15.9661 C   0  0  0  0  0  0  0  0  0  0  0  0
   -3.3063  -50.6818  -15.1646 C   0  0  0  0  0  0  0  0  0  0  0  0
   -2.0618  -50.1045  -15.1913 C   0  0  0  0  0  0  0  0  0  0  0  0
   -1.2743  -50.8256  -15.9302 O   0  0  0  0  0  0  0  0  0  0  0  0
    1.6784  -53.0816  -24.0516 C   0  0  0  0  0  0  0  0  0  0  0  0
   -1.0508  -52.4326  -29.1314 C   0  0  0  0  0  0  0  0  0  0  0  0
   -0.4072  -52.5727  -27.7954 C   0  0  0  0  0  0  0  0  0  0  0  0
   -1.0535  -52.3758  -26.6203 C   0  0  0  0  0  0  0  0  0  0  0  0
   -0.3862  -52.5274  -25.3903 C   0  0  0  0  0  0  0  0  0  0  0  0
    0.9334  -52.8768  -25.3061 C   0  0  0  0  0  0  0  0  0  0  0  0
    1.5703  -53.0732  -26.5388 C   0  0  0  0  0  0  0  0  0  0  0  0
    0.9171  -52.9247  -27.7554 C   0  0  0  0  0  0  0  0  0  0  0  0
 29 30  1  0  0  0
 30 31  2  0  0  0
 31 32  1  0  0  0
 32 33  2  0  0  0
 33 28  1  0  0  0
 28  1  1  0  0  0
  1  2  1  0  0  0
  2  3  2  0  0  0
  2  4  1  0  0  0
  4 18  1  0  0  0
 18 19  2  0  0  0
 18 20  1  0  0  0
 20 22  1  0  0  0
 22 23  1  0  0  0
 23 24  2  0  0  0
 24 25  1  0  0  0
 25 26  2  0  0  0
 26 27  1  0  0  0
  4  5  2  0  0  0
  5  6  1  0  0  0
  6  7  1  0  0  0
  7  8  2  0  0  0
  7  9  1  0  0  0
  9 10  1  0  0  0
 10 11  2  0  0  0
 11 12  1  0  0  0
 12 13  2  0  0  0
 13 14  1  0  0  0
 14 15  2  0  0  0
 15 16  1  0  0  0
 33 34  1  0  0  0
 34 35  2  0  0  0
 35 30  1  0  0  0
 16  1  1  0  0  0
 27 23  1  0  0  0
 16  6  2  0  0  0
 14  9  1  0  0  0
  3 17  1  0  0  0
 20 21  1  0  0  0
M  END
> <minimizedAffinity>
-9.10573

> <CNNscore>
0.4845608771

> <CNNaffinity>
6.9545531273

> <CNN_VS>
3.3699042797

> <CNNaffinity_variance>
0.4441912770

$$$$
[H]N=c1c(C(=O)N([H])C([H])([H])c2oc([H])c([H])c2[H])c([H])c2c(=O)n3c([H])c([H])c([H])c([H])c3nc2n1C([H])([H])c1c([H])c([H])c(C([H])([H])[H])c([H])c1[H]


 35 39  0  0  0  0  0  0  0  0999 V2000
    0.7743  -50.5567  -20.6363 N   0  0  0  0  0  0  0  0  0  0  0  0
    0.5318  -50.5708  -19.2979 C   0  0  0  0  0  0  0  0  0  0  0  0
    1.0089  -49.6193  -18.6384 N   0  0  0  0  0  0  0  0  0  0  0  0
   -0.1348  -51.5779  -18.6498 C   0  0  0  0  0  0  0  0  0  0  0  0
   -0.5767  -52.6462  -19.4375 C   0  0  0  0  0  0  0  0  0  0  0  0
   -0.3514  -52.6682  -20.7744 C   0  0  0  0  0  0  0  0  0  0  0  0
   -0.7799  -53.7337  -21.5255 C   0  0  0  0  0  0  0  0  0  0  0  0
   -1.3976  -54.6958  -21.0076 O   0  0  0  0  0  0  0  0  0  0  0  0
   -0.5423  -53.7654  -22.8466 N   0  0  0  0  0  0  0  0  0  0  0  0
   -0.9571  -54.8057  -23.5976 C   0  0  0  0  0  0  0  0  0  0  0  0
   -0.7410  -54.8848  -24.9397 C   0  0  0  0  0  0  0  0  0  0  0  0
   -0.0617  -53.8499  -25.5749 C   0  0  0  0  0  0  0  0  0  0  0  0
    0.3470  -52.8054  -24.7800 C   0  0  0  0  0  0  0  0  0  0  0  0
    0.1192  -52.7424  -23.4226 C   0  0  0  0  0  0  0  0  0  0  0  0
    0.5291  -51.7096  -22.6714 N   0  0  0  0  0  0  0  0  0  0  0  0
    0.3278  -51.6060  -21.3439 C   0  0  0  0  0  0  0  0  0  0  0  0
    1.0009  -49.3669  -17.6809 H   0  0  0  0  0  0  0  0  0  0  0  0
   -0.5202  -51.6247  -17.2633 C   0  0  0  0  0  0  0  0  0  0  0  0
   -0.7442  -52.8179  -16.8050 O   0  0  0  0  0  0  0  0  0  0  0  0
   -0.6833  -50.5456  -16.3767 N   0  0  0  0  0  0  0  0  0  0  0  0
   -0.5537  -49.5802  -16.7079 H   0  0  0  0  0  0  0  0  0  0  0  0
   -1.0716  -50.7432  -14.9849 C   0  0  0  0  0  0  0  0  0  0  0  0
   -2.5295  -50.7064  -14.8048 C   0  0  0  0  0  0  0  0  0  0  0  0
   -3.3278  -49.5975  -14.7291 C   0  0  0  0  0  0  0  0  0  0  0  0
   -4.6484  -50.0373  -14.5558 C   0  0  0  0  0  0  0  0  0  0  0  0
   -4.5563  -51.4062  -14.5385 C   0  0  0  0  0  0  0  0  0  0  0  0
   -3.3129  -51.7507  -14.6854 O   0  0  0  0  0  0  0  0  0  0  0  0
    1.5103  -49.4933  -21.2567 C   0  0  0  0  0  0  0  0  0  0  0  0
    6.6772  -51.0398  -23.3980 C   0  0  0  0  0  0  0  0  0  0  0  0
    5.3423  -50.6005  -22.9041 C   0  0  0  0  0  0  0  0  0  0  0  0
    4.4825  -49.8394  -23.6243 C   0  0  0  0  0  0  0  0  0  0  0  0
    3.2329  -49.4605  -23.0987 C   0  0  0  0  0  0  0  0  0  0  0  0
    2.8161  -49.8305  -21.8498 C   0  0  0  0  0  0  0  0  0  0  0  0
    3.7285  -50.6169  -21.1335 C   0  0  0  0  0  0  0  0  0  0  0  0
    4.9628  -50.9933  -21.6468 C   0  0  0  0  0  0  0  0  0  0  0  0
 29 30  1  0  0  0
 30 31  2  0  0  0
 31 32  1  0  0  0
 32 33  2  0  0  0
 33 28  1  0  0  0
 28  1  1  0  0  0
  1  2  1  0  0  0
  2  3  2  0  0  0
  2  4  1  0  0  0
  4 18  1  0  0  0
 18 19  2  0  0  0
 18 20  1  0  0  0
 20 22  1  0  0  0
 22 23  1  0  0  0
 23 24  2  0  0  0
 24 25  1  0  0  0
 25 26  2  0  0  0
 26 27  1  0  0  0
  4  5  2  0  0  0
  5  6  1  0  0  0
  6  7  1  0  0  0
  7  8  2  0  0  0
  7  9  1  0  0  0
  9 10  1  0  0  0
 10 11  2  0  0  0
 11 12  1  0  0  0
 12 13  2  0  0  0
 13 14  1  0  0  0
 14 15  2  0  0  0
 15 16  1  0  0  0
 33 34  1  0  0  0
 34 35  2  0  0  0
 35 30  1  0  0  0
 16  1  1  0  0  0
 27 23  1  0  0  0
 16  6  2  0  0  0
 14  9  1  0  0  0
  3 17  1  0  0  0
 20 21  1  0  0  0
M  END
> <minimizedAffinity>
-8.34540

> <CNNscore>
0.4451828301

> <CNNaffinity>
6.7144289017

> <CNN_VS>
2.9891483784

> <CNNaffinity_variance>
0.3942951560

$$$$
[H]N=c1c(C(=O)N([H])C([H])([H])c2oc([H])c([H])c2[H])c([H])c2c(=O)n3c([H])c([H])c([H])c([H])c3nc2n1C([H])([H])c1c([H])c([H])c(C([H])([H])[H])c([H])c1[H]


 35 39  0  0  0  0  0  0  0  0999 V2000
    1.8564  -52.0338  -22.2028 N   0  0  0  0  0  0  0  0  0  0  0  0
    1.1365  -52.3061  -21.0812 C   0  0  0  0  0  0  0  0  0  0  0  0
    1.6044  -51.8724  -20.0037 N   0  0  0  0  0  0  0  0  0  0  0  0
   -0.0067  -53.0621  -21.0683 C   0  0  0  0  0  0  0  0  0  0  0  0
   -0.4327  -53.5765  -22.2975 C   0  0  0  0  0  0  0  0  0  0  0  0
    0.2603  -53.3284  -23.4363 C   0  0  0  0  0  0  0  0  0  0  0  0
   -0.1669  -53.8561  -24.6288 C   0  0  0  0  0  0  0  0  0  0  0  0
   -1.2042  -54.5591  -24.7015 O   0  0  0  0  0  0  0  0  0  0  0  0
    0.5278  -53.6260  -25.7545 N   0  0  0  0  0  0  0  0  0  0  0  0
    0.1205  -54.1379  -26.9336 C   0  0  0  0  0  0  0  0  0  0  0  0
    0.7893  -53.9335  -28.1019 C   0  0  0  0  0  0  0  0  0  0  0  0
    1.9476  -53.1626  -28.0893 C   0  0  0  0  0  0  0  0  0  0  0  0
    2.3343  -52.6563  -26.8712 C   0  0  0  0  0  0  0  0  0  0  0  0
    1.6444  -52.8736  -25.6984 C   0  0  0  0  0  0  0  0  0  0  0  0
    2.0450  -52.3661  -24.5234 N   0  0  0  0  0  0  0  0  0  0  0  0
    1.4023  -52.5517  -23.3546 C   0  0  0  0  0  0  0  0  0  0  0  0
    1.3165  -51.9125  -19.0571 H   0  0  0  0  0  0  0  0  0  0  0  0
   -0.8796  -53.3140  -19.9512 C   0  0  0  0  0  0  0  0  0  0  0  0
   -1.9202  -54.0368  -20.2312 O   0  0  0  0  0  0  0  0  0  0  0  0
   -0.7346  -52.8674  -18.6258 N   0  0  0  0  0  0  0  0  0  0  0  0
    0.0548  -52.2600  -18.3682 H   0  0  0  0  0  0  0  0  0  0  0  0
   -1.6993  -53.2099  -17.5870 C   0  0  0  0  0  0  0  0  0  0  0  0
   -1.9209  -52.1014  -16.6481 C   0  0  0  0  0  0  0  0  0  0  0  0
   -1.0288  -51.1275  -16.2898 C   0  0  0  0  0  0  0  0  0  0  0  0
   -1.6699  -50.2830  -15.3715 C   0  0  0  0  0  0  0  0  0  0  0  0
   -2.9279  -50.8137  -15.2353 C   0  0  0  0  0  0  0  0  0  0  0  0
   -3.0303  -51.8646  -15.9911 O   0  0  0  0  0  0  0  0  0  0  0  0
    3.0673  -51.2669  -22.1521 C   0  0  0  0  0  0  0  0  0  0  0  0
    2.7711  -45.6478  -23.5708 C   0  0  0  0  0  0  0  0  0  0  0  0
    2.8123  -47.0753  -23.1471 C   0  0  0  0  0  0  0  0  0  0  0  0
    2.1391  -47.5665  -22.0781 C   0  0  0  0  0  0  0  0  0  0  0  0
    2.2190  -48.9288  -21.7331 C   0  0  0  0  0  0  0  0  0  0  0  0
    2.9683  -49.8260  -22.4431 C   0  0  0  0  0  0  0  0  0  0  0  0
    3.6500  -49.2849  -23.5415 C   0  0  0  0  0  0  0  0  0  0  0  0
    3.5752  -47.9417  -23.8863 C   0  0  0  0  0  0  0  0  0  0  0  0
 29 30  1  0  0  0
 30 31  2  0  0  0
 31 32  1  0  0  0
 32 33  2  0  0  0
 33 28  1  0  0  0
 28  1  1  0  0  0
  1  2  1  0  0  0
  2  3  2  0  0  0
  2  4  1  0  0  0
  4 18  1  0  0  0
 18 19  2  0  0  0
 18 20  1  0  0  0
 20 22  1  0  0  0
 22 23  1  0  0  0
 23 24  2  0  0  0
 24 25  1  0  0  0
 25 26  2  0  0  0
 26 27  1  0  0  0
  4  5  2  0  0  0
  5  6  1  0  0  0
  6  7  1  0  0  0
  7  8  2  0  0  0
  7  9  1  0  0  0
  9 10  1  0  0  0
 10 11  2  0  0  0
 11 12  1  0  0  0
 12 13  2  0  0  0
 13 14  1  0  0  0
 14 15  2  0  0  0
 15 16  1  0  0  0
 33 34  1  0  0  0
 34 35  2  0  0  0
 35 30  1  0  0  0
 16  1  1  0  0  0
 27 23  1  0  0  0
 16  6  2  0  0  0
 14  9  1  0  0  0
  3 17  1  0  0  0
 20 21  1  0  0  0
M  END
> <minimizedAffinity>
-9.42480

> <CNNscore>
0.4323111773

> <CNNaffinity>
6.9447565079

> <CNN_VS>
3.0022959709

> <CNNaffinity_variance>
0.3260114491

$$$$
[H]N=c1c(C(=O)N([H])C([H])([H])c2oc([H])c([H])c2[H])c([H])c2c(=O)n3c([H])c([H])c([H])c([H])c3nc2n1C([H])([H])c1c([H])c([H])c(C([H])([H])[H])c([H])c1[H]


 35 39  0  0  0  0  0  0  0  0999 V2000
    1.9951  -51.3271  -20.5062 N   0  0  0  0  0  0  0  0  0  0  0  0
    1.4642  -51.3154  -19.2538 C   0  0  0  0  0  0  0  0  0  0  0  0
    2.1194  -50.7031  -18.3800 N   0  0  0  0  0  0  0  0  0  0  0  0
    0.3151  -51.9746  -18.9018 C   0  0  0  0  0  0  0  0  0  0  0  0
   -0.3267  -52.6996  -19.9114 C   0  0  0  0  0  0  0  0  0  0  0  0
    0.1740  -52.7365  -21.1710 C   0  0  0  0  0  0  0  0  0  0  0  0
   -0.4633  -53.4670  -22.1422 C   0  0  0  0  0  0  0  0  0  0  0  0
   -1.5206  -54.0988  -21.9006 O   0  0  0  0  0  0  0  0  0  0  0  0
    0.0407  -53.5189  -23.3856 N   0  0  0  0  0  0  0  0  0  0  0  0
   -0.5743  -54.2325  -24.3503 C   0  0  0  0  0  0  0  0  0  0  0  0
   -0.1036  -54.3166  -25.6253 C   0  0  0  0  0  0  0  0  0  0  0  0
    1.0650  -53.6388  -25.9582 C   0  0  0  0  0  0  0  0  0  0  0  0
    1.6660  -52.9213  -24.9514 C   0  0  0  0  0  0  0  0  0  0  0  0
    1.1750  -52.8476  -23.6661 C   0  0  0  0  0  0  0  0  0  0  0  0
    1.7826  -52.1385  -22.7033 N   0  0  0  0  0  0  0  0  0  0  0  0
    1.3384  -52.0379  -21.4360 C   0  0  0  0  0  0  0  0  0  0  0  0
    1.9925  -50.5294  -17.4134 H   0  0  0  0  0  0  0  0  0  0  0  0
   -0.3666  -51.9337  -17.6343 C   0  0  0  0  0  0  0  0  0  0  0  0
   -1.2404  -52.8772  -17.4604 O   0  0  0  0  0  0  0  0  0  0  0  0
   -0.1983  -51.0025  -16.5943 N   0  0  0  0  0  0  0  0  0  0  0  0
    0.4555  -50.2159  -16.7052 H   0  0  0  0  0  0  0  0  0  0  0  0
   -0.9563  -51.0895  -15.3514 C   0  0  0  0  0  0  0  0  0  0  0  0
   -1.9272  -49.9948  -15.2156 C   0  0  0  0  0  0  0  0  0  0  0  0
   -1.6842  -48.6526  -15.3265 C   0  0  0  0  0  0  0  0  0  0  0  0
   -2.9002  -47.9838  -15.1228 C   0  0  0  0  0  0  0  0  0  0  0  0
   -3.8110  -48.9852  -14.8987 C   0  0  0  0  0  0  0  0  0  0  0  0
   -3.2058  -50.1324  -14.9612 O   0  0  0  0  0  0  0  0  0  0  0  0
    3.2220  -50.6489  -20.8098 C   0  0  0  0  0  0  0  0  0  0  0  0
    2.7387  -45.7280  -23.8472 C   0  0  0  0  0  0  0  0  0  0  0  0
    2.9081  -47.0148  -23.1161 C   0  0  0  0  0  0  0  0  0  0  0  0
    3.8318  -47.9524  -23.4398 C   0  0  0  0  0  0  0  0  0  0  0  0
    3.9413  -49.1479  -22.7049 C   0  0  0  0  0  0  0  0  0  0  0  0
    3.1360  -49.4326  -21.6368 C   0  0  0  0  0  0  0  0  0  0  0  0
    2.1935  -48.4421  -21.3295 C   0  0  0  0  0  0  0  0  0  0  0  0
    2.0807  -47.2609  -22.0512 C   0  0  0  0  0  0  0  0  0  0  0  0
 29 30  1  0  0  0
 30 31  2  0  0  0
 31 32  1  0  0  0
 32 33  2  0  0  0
 33 28  1  0  0  0
 28  1  1  0  0  0
  1  2  1  0  0  0
  2  3  2  0  0  0
  2  4  1  0  0  0
  4 18  1  0  0  0
 18 19  2  0  0  0
 18 20  1  0  0  0
 20 22  1  0  0  0
 22 23  1  0  0  0
 23 24  2  0  0  0
 24 25  1  0  0  0
 25 26  2  0  0  0
 26 27  1  0  0  0
  4  5  2  0  0  0
  5  6  1  0  0  0
  6  7  1  0  0  0
  7  8  2  0  0  0
  7  9  1  0  0  0
  9 10  1  0  0  0
 10 11  2  0  0  0
 11 12  1  0  0  0
 12 13  2  0  0  0
 13 14  1  0  0  0
 14 15  2  0  0  0
 15 16  1  0  0  0
 33 34  1  0  0  0
 34 35  2  0  0  0
 35 30  1  0  0  0
 16  1  1  0  0  0
 27 23  1  0  0  0
 16  6  2  0  0  0
 14  9  1  0  0  0
  3 17  1  0  0  0
 20 21  1  0  0  0
M  END
> <minimizedAffinity>
-8.27027

> <CNNscore>
0.4276925921

> <CNNaffinity>
6.7948951721

> <CNN_VS>
2.9061262608

> <CNNaffinity_variance>
0.5352530479

$$$$
[H]N=c1c(C(=O)N([H])C([H])([H])c2oc([H])c([H])c2[H])c([H])c2c(=O)n3c([H])c([H])c([H])c([H])c3nc2n1C([H])([H])c1c([H])c([H])c(C([H])([H])[H])c([H])c1[H]


 35 39  0  0  0  0  0  0  0  0999 V2000
    2.3620  -50.7720  -20.9870 N   0  0  0  0  0  0  0  0  0  0  0  0
    1.9293  -50.6113  -19.7074 C   0  0  0  0  0  0  0  0  0  0  0  0
    2.6540  -49.9145  -18.9609 N   0  0  0  0  0  0  0  0  0  0  0  0
    0.8065  -51.2091  -19.1967 C   0  0  0  0  0  0  0  0  0  0  0  0
    0.0840  -52.0333  -20.0659 C   0  0  0  0  0  0  0  0  0  0  0  0
    0.4858  -52.2194  -21.3475 C   0  0  0  0  0  0  0  0  0  0  0  0
   -0.2293  -53.0448  -22.1784 C   0  0  0  0  0  0  0  0  0  0  0  0
   -1.2689  -53.6292  -21.7871 O   0  0  0  0  0  0  0  0  0  0  0  0
    0.1770  -53.2440  -23.4425 N   0  0  0  0  0  0  0  0  0  0  0  0
   -0.5153  -54.0523  -24.2706 C   0  0  0  0  0  0  0  0  0  0  0  0
   -0.1450  -54.2865  -25.5598 C   0  0  0  0  0  0  0  0  0  0  0  0
    0.9988  -53.6683  -26.0552 C   0  0  0  0  0  0  0  0  0  0  0  0
    1.6805  -52.8513  -25.1849 C   0  0  0  0  0  0  0  0  0  0  0  0
    1.2905  -52.6259  -23.8827 C   0  0  0  0  0  0  0  0  0  0  0  0
    1.9752  -51.8223  -23.0554 N   0  0  0  0  0  0  0  0  0  0  0  0
    1.6308  -51.5728  -21.7777 C   0  0  0  0  0  0  0  0  0  0  0  0
    2.6032  -49.6312  -18.0134 H   0  0  0  0  0  0  0  0  0  0  0  0
    0.2249  -51.0154  -17.8939 C   0  0  0  0  0  0  0  0  0  0  0  0
    0.2871  -49.7975  -17.4504 O   0  0  0  0  0  0  0  0  0  0  0  0
   -0.3807  -51.9788  -17.0680 N   0  0  0  0  0  0  0  0  0  0  0  0
   -0.4170  -52.9637  -17.3632 H   0  0  0  0  0  0  0  0  0  0  0  0
   -0.9403  -51.6358  -15.7657 C   0  0  0  0  0  0  0  0  0  0  0  0
   -2.4070  -51.5511  -15.7966 C   0  0  0  0  0  0  0  0  0  0  0  0
   -3.1947  -50.5947  -15.2157 C   0  0  0  0  0  0  0  0  0  0  0  0
   -4.5300  -50.9136  -15.5034 C   0  0  0  0  0  0  0  0  0  0  0  0
   -4.4566  -52.0612  -16.2520 C   0  0  0  0  0  0  0  0  0  0  0  0
   -3.2102  -52.3952  -16.3974 O   0  0  0  0  0  0  0  0  0  0  0  0
    3.5661  -50.1510  -21.4579 C   0  0  0  0  0  0  0  0  0  0  0  0
    3.1020  -45.5405  -24.9509 C   0  0  0  0  0  0  0  0  0  0  0  0
    3.1859  -46.6880  -24.0049 C   0  0  0  0  0  0  0  0  0  0  0  0
    2.5285  -46.7414  -22.8208 C   0  0  0  0  0  0  0  0  0  0  0  0
    2.6491  -47.8585  -21.9730 C   0  0  0  0  0  0  0  0  0  0  0  0
    3.4241  -48.9410  -22.2863 C   0  0  0  0  0  0  0  0  0  0  0  0
    4.0886  -48.8530  -23.5170 C   0  0  0  0  0  0  0  0  0  0  0  0
    3.9736  -47.7532  -24.3572 C   0  0  0  0  0  0  0  0  0  0  0  0
 29 30  1  0  0  0
 30 31  2  0  0  0
 31 32  1  0  0  0
 32 33  2  0  0  0
 33 28  1  0  0  0
 28  1  1  0  0  0
  1  2  1  0  0  0
  2  3  2  0  0  0
  2  4  1  0  0  0
  4 18  1  0  0  0
 18 19  2  0  0  0
 18 20  1  0  0  0
 20 22  1  0  0  0
 22 23  1  0  0  0
 23 24  2  0  0  0
 24 25  1  0  0  0
 25 26  2  0  0  0
 26 27  1  0  0  0
  4  5  2  0  0  0
  5  6  1  0  0  0
  6  7  1  0  0  0
  7  8  2  0  0  0
  7  9  1  0  0  0
  9 10  1  0  0  0
 10 11  2  0  0  0
 11 12  1  0  0  0
 12 13  2  0  0  0
 13 14  1  0  0  0
 14 15  2  0  0  0
 15 16  1  0  0  0
 33 34  1  0  0  0
 34 35  2  0  0  0
 35 30  1  0  0  0
 16  1  1  0  0  0
 27 23  1  0  0  0
 16  6  2  0  0  0
 14  9  1  0  0  0
  3 17  1  0  0  0
 20 21  1  0  0  0
M  END
> <minimizedAffinity>
-8.27190

> <CNNscore>
0.4082590342

> <CNNaffinity>
6.7754325867

> <CNN_VS>
2.7661316395

> <CNNaffinity_variance>
0.7351440787

$$$$
[H]N=c1c(C(=O)N([H])C([H])([H])c2oc([H])c([H])c2[H])c([H])c2c(=O)n3c([H])c([H])c([H])c([H])c3nc2n1C([H])([H])c1c([H])c([H])c(C([H])([H])[H])c([H])c1[H]


 35 39  0  0  0  0  0  0  0  0999 V2000
   -0.0275  -53.4994  -21.9070 N   0  0  0  0  0  0  0  0  0  0  0  0
   -0.6200  -53.3956  -20.6869 C   0  0  0  0  0  0  0  0  0  0  0  0
   -1.6723  -54.0545  -20.5241 N   0  0  0  0  0  0  0  0  0  0  0  0
   -0.1681  -52.5807  -19.6817 C   0  0  0  0  0  0  0  0  0  0  0  0
    0.9710  -51.8169  -19.9574 C   0  0  0  0  0  0  0  0  0  0  0  0
    1.5874  -51.8921  -21.1629 C   0  0  0  0  0  0  0  0  0  0  0  0
    2.6943  -51.1220  -21.4174 C   0  0  0  0  0  0  0  0  0  0  0  0
    3.1706  -50.3502  -20.5497 O   0  0  0  0  0  0  0  0  0  0  0  0
    3.2954  -51.1822  -22.6165 N   0  0  0  0  0  0  0  0  0  0  0  0
    4.3838  -50.4315  -22.8812 C   0  0  0  0  0  0  0  0  0  0  0  0
    5.0287  -50.4566  -24.0802 C   0  0  0  0  0  0  0  0  0  0  0  0
    4.5506  -51.2918  -25.0851 C   0  0  0  0  0  0  0  0  0  0  0  0
    3.4400  -52.0430  -24.7818 C   0  0  0  0  0  0  0  0  0  0  0  0
    2.8001  -52.0046  -23.5621 C   0  0  0  0  0  0  0  0  0  0  0  0
    1.7178  -52.7498  -23.2937 N   0  0  0  0  0  0  0  0  0  0  0  0
    1.0621  -52.7448  -22.1174 C   0  0  0  0  0  0  0  0  0  0  0  0
   -2.3059  -54.1741  -19.7725 H   0  0  0  0  0  0  0  0  0  0  0  0
   -0.6713  -52.4857  -18.3360 C   0  0  0  0  0  0  0  0  0  0  0  0
   -1.6431  -53.3015  -18.0641 O   0  0  0  0  0  0  0  0  0  0  0  0
   -0.2405  -51.6225  -17.3131 N   0  0  0  0  0  0  0  0  0  0  0  0
    0.5008  -50.9330  -17.4964 H   0  0  0  0  0  0  0  0  0  0  0  0
   -0.8402  -51.6425  -15.9839 C   0  0  0  0  0  0  0  0  0  0  0  0
    0.1565  -51.8718  -14.9287 C   0  0  0  0  0  0  0  0  0  0  0  0
    1.4264  -51.3660  -14.8637 C   0  0  0  0  0  0  0  0  0  0  0  0
    2.0145  -51.8482  -13.6851 C   0  0  0  0  0  0  0  0  0  0  0  0
    1.0426  -52.6261  -13.1082 C   0  0  0  0  0  0  0  0  0  0  0  0
   -0.0156  -52.6122  -13.8607 O   0  0  0  0  0  0  0  0  0  0  0  0
   -0.5658  -54.3414  -22.9358 C   0  0  0  0  0  0  0  0  0  0  0  0
   -0.5881  -52.5048  -28.4404 C   0  0  0  0  0  0  0  0  0  0  0  0
   -0.6065  -52.9129  -27.0079 C   0  0  0  0  0  0  0  0  0  0  0  0
   -1.1503  -52.1664  -26.0159 C   0  0  0  0  0  0  0  0  0  0  0  0
   -1.1368  -52.6121  -24.6808 C   0  0  0  0  0  0  0  0  0  0  0  0
   -0.5833  -53.8059  -24.3082 C   0  0  0  0  0  0  0  0  0  0  0  0
   -0.0311  -54.5521  -25.3581 C   0  0  0  0  0  0  0  0  0  0  0  0
   -0.0412  -54.1171  -26.6769 C   0  0  0  0  0  0  0  0  0  0  0  0
 29 30  1  0  0  0
 30 31  2  0  0  0
 31 32  1  0  0  0
 32 33  2  0  0  0
 33 28  1  0  0  0
 28  1  1  0  0  0
  1  2  1  0  0  0
  2  3  2  0  0  0
  2  4  1  0  0  0
  4 18  1  0  0  0
 18 19  2  0  0  0
 18 20  1  0  0  0
 20 22  1  0  0  0
 22 23  1  0  0  0
 23 24  2  0  0  0
 24 25  1  0  0  0
 25 26  2  0  0  0
 26 27  1  0  0  0
  4  5  2  0  0  0
  5  6  1  0  0  0
  6  7  1  0  0  0
  7  8  2  0  0  0
  7  9  1  0  0  0
  9 10  1  0  0  0
 10 11  2  0  0  0
 11 12  1  0  0  0
 12 13  2  0  0  0
 13 14  1  0  0  0
 14 15  2  0  0  0
 15 16  1  0  0  0
 33 34  1  0  0  0
 34 35  2  0  0  0
 35 30  1  0  0  0
 16  1  1  0  0  0
 27 23  1  0  0  0
 16  6  2  0  0  0
 14  9  1  0  0  0
  3 17  1  0  0  0
 20 21  1  0  0  0
M  END
> <minimizedAffinity>
-8.92892

> <CNNscore>
0.4068269134

> <CNNaffinity>
6.6675505638

> <CNN_VS>
2.7125389576

> <CNNaffinity_variance>
0.3384327888

$$$$
[H]/C(=C(\[H])C([H])([H])C([H])([H])N([H])C(=O)/C([H])=C([H])/C([H])=C([H])/C([H])=C(\[H])c1sc([H])c([H])c1[H])C([H])([H])OC(=O)C([H])([H])C([H])(C([H])([H])[H])C([H])([H])[H]


 27 27  0  0  0  0  0  0  0  0999 V2000
   -0.4267  -53.7593  -23.6229 N   0  0  0  0  0  0  0  0  0  0  0  0
   -1.0073  -54.1313  -22.3963 C   0  0  0  0  0  0  0  0  0  0  0  0
   -1.5793  -55.2466  -22.3122 O   0  0  0  0  0  0  0  0  0  0  0  0
    0.0537  -52.8312  -23.6995 H   0  0  0  0  0  0  0  0  0  0  0  0
   -0.9594  -53.2661  -21.2435 C   0  0  0  0  0  0  0  0  0  0  0  0
   -0.3005  -53.5194  -20.1495 C   0  0  0  0  0  0  0  0  0  0  0  0
   -0.2900  -52.5977  -19.0081 C   0  0  0  0  0  0  0  0  0  0  0  0
   -1.0250  -52.7628  -17.9463 C   0  0  0  0  0  0  0  0  0  0  0  0
   -0.9947  -51.8194  -16.8113 C   0  0  0  0  0  0  0  0  0  0  0  0
   -2.0677  -51.6038  -16.0856 C   0  0  0  0  0  0  0  0  0  0  0  0
   -2.0251  -50.6538  -14.9477 C   0  0  0  0  0  0  0  0  0  0  0  0
   -0.9826  -50.4184  -14.0926 C   0  0  0  0  0  0  0  0  0  0  0  0
   -1.1715  -49.5050  -13.1266 C   0  0  0  0  0  0  0  0  0  0  0  0
   -2.3926  -48.8870  -13.0805 C   0  0  0  0  0  0  0  0  0  0  0  0
   -3.2339  -49.5957  -14.3789 S   0  0  0  0  0  0  0  0  0  0  0  0
   -0.4511  -54.5890  -24.8026 C   0  0  0  0  0  0  0  0  0  0  0  0
   -0.2332  -53.8141  -26.0887 C   0  0  0  0  0  0  0  0  0  0  0  0
    0.0101  -51.3599  -25.9144 C   0  0  0  0  0  0  0  0  0  0  0  0
   -0.7346  -52.4324  -25.9738 C   0  0  0  0  0  0  0  0  0  0  0  0
    1.4729  -51.4164  -25.9560 C   0  0  0  0  0  0  0  0  0  0  0  0
    1.9645  -51.9735  -24.7573 O   0  0  0  0  0  0  0  0  0  0  0  0
    2.0402  -51.2158  -23.6140 C   0  0  0  0  0  0  0  0  0  0  0  0
    1.0031  -50.9580  -22.9691 O   0  0  0  0  0  0  0  0  0  0  0  0
    3.3350  -50.6767  -23.0994 C   0  0  0  0  0  0  0  0  0  0  0  0
    4.6892  -49.7233  -24.9750 C   0  0  0  0  0  0  0  0  0  0  0  0
    4.4287  -50.9198  -24.1166 C   0  0  0  0  0  0  0  0  0  0  0  0
    5.7092  -51.3667  -23.4756 C   0  0  0  0  0  0  0  0  0  0  0  0
 25 26  1  0  0  0
 26 27  1  0  0  0
 26 24  1  0  0  0
 24 22  1  0  0  0
 22 23  2  0  0  0
 22 21  1  0  0  0
 21 20  1  0  0  0
 20 18  1  0  0  0
 18 19  2  0  0  0
 19 17  1  0  0  0
 17 16  1  0  0  0
 16  1  1  0  0  0
  1  2  1  0  0  0
  2  3  2  0  0  0
  2  5  1  0  0  0
  5  6  2  0  0  0
  6  7  1  0  0  0
  7  8  2  0  0  0
  8  9  1  0  0  0
  9 10  2  0  0  0
 10 11  1  0  0  0
 11 12  2  0  0  0
 12 13  1  0  0  0
 13 14  2  0  0  0
 14 15  1  0  0  0
 15 11  1  0  0  0
  1  4  1  0  0  0
M  END
> <minimizedAffinity>
-5.50676

> <CNNscore>
0.5526116490

> <CNNaffinity>
6.2673063278

> <CNN_VS>
3.4633865356

> <CNNaffinity_variance>
0.1055148691

$$$$
[H]/C(=C(\[H])C([H])([H])C([H])([H])N([H])C(=O)/C([H])=C([H])/C([H])=C([H])/C([H])=C(\[H])c1sc([H])c([H])c1[H])C([H])([H])OC(=O)C([H])([H])C([H])(C([H])([H])[H])C([H])([H])[H]


 27 27  0  0  0  0  0  0  0  0999 V2000
   -0.3244  -53.6950  -23.3968 N   0  0  0  0  0  0  0  0  0  0  0  0
   -0.7868  -54.0398  -22.1134 C   0  0  0  0  0  0  0  0  0  0  0  0
   -1.5729  -55.0127  -21.9956 O   0  0  0  0  0  0  0  0  0  0  0  0
    0.3330  -52.8858  -23.5021 H   0  0  0  0  0  0  0  0  0  0  0  0
   -0.3803  -53.3059  -20.9404 C   0  0  0  0  0  0  0  0  0  0  0  0
   -0.0616  -52.0436  -20.9254 C   0  0  0  0  0  0  0  0  0  0  0  0
    0.3448  -51.3511  -19.6975 C   0  0  0  0  0  0  0  0  0  0  0  0
    1.5866  -51.1218  -19.3809 C   0  0  0  0  0  0  0  0  0  0  0  0
    1.9678  -50.4221  -18.1383 C   0  0  0  0  0  0  0  0  0  0  0  0
    2.9281  -50.8853  -17.3718 C   0  0  0  0  0  0  0  0  0  0  0  0
    3.3023  -50.1735  -16.1257 C   0  0  0  0  0  0  0  0  0  0  0  0
    3.5113  -48.8311  -15.9593 C   0  0  0  0  0  0  0  0  0  0  0  0
    3.8450  -48.4067  -14.7298 C   0  0  0  0  0  0  0  0  0  0  0  0
    3.9473  -49.3549  -13.7473 C   0  0  0  0  0  0  0  0  0  0  0  0
    3.5770  -50.8007  -14.5651 S   0  0  0  0  0  0  0  0  0  0  0  0
   -0.7043  -54.3970  -24.5983 C   0  0  0  0  0  0  0  0  0  0  0  0
   -0.2299  -53.7169  -25.8689 C   0  0  0  0  0  0  0  0  0  0  0  0
    0.2061  -51.2879  -25.7193 C   0  0  0  0  0  0  0  0  0  0  0  0
   -0.6118  -52.2930  -25.8897 C   0  0  0  0  0  0  0  0  0  0  0  0
    1.6390  -51.4734  -25.4801 C   0  0  0  0  0  0  0  0  0  0  0  0
    1.8663  -51.7326  -24.1126 O   0  0  0  0  0  0  0  0  0  0  0  0
    2.4598  -50.7876  -23.3115 C   0  0  0  0  0  0  0  0  0  0  0  0
    1.7991  -49.8062  -22.9135 O   0  0  0  0  0  0  0  0  0  0  0  0
    3.8891  -50.8857  -22.8881 C   0  0  0  0  0  0  0  0  0  0  0  0
    4.8866  -49.5466  -24.7516 C   0  0  0  0  0  0  0  0  0  0  0  0
    4.7831  -50.8929  -24.1091 C   0  0  0  0  0  0  0  0  0  0  0  0
    6.1573  -51.4101  -23.8018 C   0  0  0  0  0  0  0  0  0  0  0  0
 25 26  1  0  0  0
 26 27  1  0  0  0
 26 24  1  0  0  0
 24 22  1  0  0  0
 22 23  2  0  0  0
 22 21  1  0  0  0
 21 20  1  0  0  0
 20 18  1  0  0  0
 18 19  2  0  0  0
 19 17  1  0  0  0
 17 16  1  0  0  0
 16  1  1  0  0  0
  1  2  1  0  0  0
  2  3  2  0  0  0
  2  5  1  0  0  0
  5  6  2  0  0  0
  6  7  1  0  0  0
  7  8  2  0  0  0
  8  9  1  0  0  0
  9 10  2  0  0  0
 10 11  1  0  0  0
 11 12  2  0  0  0
 12 13  1  0  0  0
 13 14  2  0  0  0
 14 15  1  0  0  0
 15 11  1  0  0  0
  1  4  1  0  0  0
M  END
> <minimizedAffinity>
-5.21815

> <CNNscore>
0.4393587708

> <CNNaffinity>
6.1264228821

> <CNN_VS>
2.6916975975

> <CNNaffinity_variance>
0.0285938792

$$$$
[H]/C(=C(\[H])C([H])([H])C([H])([H])N([H])C(=O)/C([H])=C([H])/C([H])=C([H])/C([H])=C(\[H])c1sc([H])c([H])c1[H])C([H])([H])OC(=O)C([H])([H])C([H])(C([H])([H])[H])C([H])([H])[H]


 27 27  0  0  0  0  0  0  0  0999 V2000
    2.0900  -49.4348  -18.1574 N   0  0  0  0  0  0  0  0  0  0  0  0
    2.3085  -50.6113  -18.8975 C   0  0  0  0  0  0  0  0  0  0  0  0
    3.2312  -51.3863  -18.5420 O   0  0  0  0  0  0  0  0  0  0  0  0
    1.3208  -48.7849  -18.4474 H   0  0  0  0  0  0  0  0  0  0  0  0
    1.5019  -50.9434  -20.0460 C   0  0  0  0  0  0  0  0  0  0  0  0
    1.3757  -52.1386  -20.5467 C   0  0  0  0  0  0  0  0  0  0  0  0
    0.5382  -52.4142  -21.7193 C   0  0  0  0  0  0  0  0  0  0  0  0
    0.8008  -51.9600  -22.9108 C   0  0  0  0  0  0  0  0  0  0  0  0
   -0.0594  -52.2530  -24.0741 C   0  0  0  0  0  0  0  0  0  0  0  0
    0.2667  -51.8348  -25.2755 C   0  0  0  0  0  0  0  0  0  0  0  0
   -0.6054  -52.1354  -26.4366 C   0  0  0  0  0  0  0  0  0  0  0  0
   -1.9718  -52.0790  -26.4938 C   0  0  0  0  0  0  0  0  0  0  0  0
   -2.5538  -52.3970  -27.6613 C   0  0  0  0  0  0  0  0  0  0  0  0
   -1.7289  -52.7506  -28.6955 C   0  0  0  0  0  0  0  0  0  0  0  0
   -0.1759  -52.6291  -28.0102 S   0  0  0  0  0  0  0  0  0  0  0  0
    2.8712  -49.0595  -17.0044 C   0  0  0  0  0  0  0  0  0  0  0  0
    3.9355  -48.0221  -17.3093 C   0  0  0  0  0  0  0  0  0  0  0  0
    3.6214  -46.5800  -19.2929 C   0  0  0  0  0  0  0  0  0  0  0  0
    3.3714  -46.8752  -18.0444 C   0  0  0  0  0  0  0  0  0  0  0  0
    4.5199  -47.3831  -20.1249 C   0  0  0  0  0  0  0  0  0  0  0  0
    5.6806  -46.6420  -20.4290 O   0  0  0  0  0  0  0  0  0  0  0  0
    6.8649  -46.9019  -19.7831 C   0  0  0  0  0  0  0  0  0  0  0  0
    7.7212  -46.0011  -19.6685 O   0  0  0  0  0  0  0  0  0  0  0  0
    7.1779  -48.2417  -19.2012 C   0  0  0  0  0  0  0  0  0  0  0  0
    9.3453  -49.4888  -19.1106 C   0  0  0  0  0  0  0  0  0  0  0  0
    8.2933  -48.8924  -19.9903 C   0  0  0  0  0  0  0  0  0  0  0  0
    7.7817  -49.9351  -20.9397 C   0  0  0  0  0  0  0  0  0  0  0  0
 25 26  1  0  0  0
 26 27  1  0  0  0
 26 24  1  0  0  0
 24 22  1  0  0  0
 22 23  2  0  0  0
 22 21  1  0  0  0
 21 20  1  0  0  0
 20 18  1  0  0  0
 18 19  2  0  0  0
 19 17  1  0  0  0
 17 16  1  0  0  0
 16  1  1  0  0  0
  1  2  1  0  0  0
  2  3  2  0  0  0
  2  5  1  0  0  0
  5  6  2  0  0  0
  6  7  1  0  0  0
  7  8  2  0  0  0
  8  9  1  0  0  0
  9 10  2  0  0  0
 10 11  1  0  0  0
 11 12  2  0  0  0
 12 13  1  0  0  0
 13 14  2  0  0  0
 14 15  1  0  0  0
 15 11  1  0  0  0
  1  4  1  0  0  0
M  END
> <minimizedAffinity>
-4.87139

> <CNNscore>
0.4173780978

> <CNNaffinity>
5.6215176582

> <CNN_VS>
2.3462984562

> <CNNaffinity_variance>
0.1344048679

$$$$
[H]/C(=C(\[H])C([H])([H])C([H])([H])N([H])C(=O)/C([H])=C([H])/C([H])=C([H])/C([H])=C(\[H])c1sc([H])c([H])c1[H])C([H])([H])OC(=O)C([H])([H])C([H])(C([H])([H])[H])C([H])([H])[H]


 27 27  0  0  0  0  0  0  0  0999 V2000
    2.3550  -51.3007  -24.4223 N   0  0  0  0  0  0  0  0  0  0  0  0
    1.5183  -52.2277  -23.7737 C   0  0  0  0  0  0  0  0  0  0  0  0
    1.1475  -53.2501  -24.4025 O   0  0  0  0  0  0  0  0  0  0  0  0
    2.6696  -50.4466  -23.9030 H   0  0  0  0  0  0  0  0  0  0  0  0
    1.0816  -52.0300  -22.4135 C   0  0  0  0  0  0  0  0  0  0  0  0
    0.4361  -52.9100  -21.7036 C   0  0  0  0  0  0  0  0  0  0  0  0
    0.0177  -52.6498  -20.3217 C   0  0  0  0  0  0  0  0  0  0  0  0
    0.5852  -51.7636  -19.5554 C   0  0  0  0  0  0  0  0  0  0  0  0
    0.1439  -51.5219  -18.1676 C   0  0  0  0  0  0  0  0  0  0  0  0
   -0.8775  -52.1743  -17.6622 C   0  0  0  0  0  0  0  0  0  0  0  0
   -1.3116  -51.9231  -16.2666 C   0  0  0  0  0  0  0  0  0  0  0  0
   -2.5918  -51.8095  -15.7960 C   0  0  0  0  0  0  0  0  0  0  0  0
   -2.7478  -51.5796  -14.4822 C   0  0  0  0  0  0  0  0  0  0  0  0
   -1.6109  -51.4786  -13.7257 C   0  0  0  0  0  0  0  0  0  0  0  0
   -0.3671  -51.7061  -14.8647 S   0  0  0  0  0  0  0  0  0  0  0  0
    2.8155  -51.4540  -25.7807 C   0  0  0  0  0  0  0  0  0  0  0  0
    2.8569  -50.1491  -26.5536 C   0  0  0  0  0  0  0  0  0  0  0  0
    4.1949  -48.0711  -26.4863 C   0  0  0  0  0  0  0  0  0  0  0  0
    3.8060  -49.1970  -25.9482 C   0  0  0  0  0  0  0  0  0  0  0  0
    3.7145  -47.6184  -27.7936 C   0  0  0  0  0  0  0  0  0  0  0  0
    2.8197  -46.5411  -27.6277 O   0  0  0  0  0  0  0  0  0  0  0  0
    3.2360  -45.2485  -27.8352 C   0  0  0  0  0  0  0  0  0  0  0  0
    3.2654  -44.7830  -28.9930 O   0  0  0  0  0  0  0  0  0  0  0  0
    3.6634  -44.3592  -26.7135 C   0  0  0  0  0  0  0  0  0  0  0  0
    5.3476  -42.5861  -26.1841 C   0  0  0  0  0  0  0  0  0  0  0  0
    5.0390  -43.7988  -27.0028 C   0  0  0  0  0  0  0  0  0  0  0  0
    6.1190  -44.8222  -26.8119 C   0  0  0  0  0  0  0  0  0  0  0  0
 25 26  1  0  0  0
 26 27  1  0  0  0
 26 24  1  0  0  0
 24 22  1  0  0  0
 22 23  2  0  0  0
 22 21  1  0  0  0
 21 20  1  0  0  0
 20 18  1  0  0  0
 18 19  2  0  0  0
 19 17  1  0  0  0
 17 16  1  0  0  0
 16  1  1  0  0  0
  1  2  1  0  0  0
  2  3  2  0  0  0
  2  5  1  0  0  0
  5  6  2  0  0  0
  6  7  1  0  0  0
  7  8  2  0  0  0
  8  9  1  0  0  0
  9 10  2  0  0  0
 10 11  1  0  0  0
 11 12  2  0  0  0
 12 13  1  0  0  0
 13 14  2  0  0  0
 14 15  1  0  0  0
 15 11  1  0  0  0
  1  4  1  0  0  0
M  END
> <minimizedAffinity>
-4.48717

> <CNNscore>
0.4160155654

> <CNNaffinity>
5.4705829620

> <CNN_VS>
2.2758476734

> <CNNaffinity_variance>
0.3475535512

$$$$
[H]/C(=C(\[H])C([H])([H])C([H])([H])N([H])C(=O)/C([H])=C([H])/C([H])=C([H])/C([H])=C(\[H])c1sc([H])c([H])c1[H])C([H])([H])OC(=O)C([H])([H])C([H])(C([H])([H])[H])C([H])([H])[H]


 27 27  0  0  0  0  0  0  0  0999 V2000
   -0.8032  -52.4217  -17.7764 N   0  0  0  0  0  0  0  0  0  0  0  0
    0.1974  -51.8488  -18.5829 C   0  0  0  0  0  0  0  0  0  0  0  0
    1.0847  -51.1465  -18.0373 O   0  0  0  0  0  0  0  0  0  0  0  0
   -1.5453  -53.0102  -18.2248 H   0  0  0  0  0  0  0  0  0  0  0  0
    0.2253  -52.0496  -20.0108 C   0  0  0  0  0  0  0  0  0  0  0  0
    0.6726  -51.1852  -20.8755 C   0  0  0  0  0  0  0  0  0  0  0  0
    0.6750  -51.4479  -22.3189 C   0  0  0  0  0  0  0  0  0  0  0  0
    0.2496  -52.5595  -22.8462 C   0  0  0  0  0  0  0  0  0  0  0  0
    0.2632  -52.7976  -24.3030 C   0  0  0  0  0  0  0  0  0  0  0  0
   -0.5763  -52.1722  -25.0958 C   0  0  0  0  0  0  0  0  0  0  0  0
   -0.5530  -52.4196  -26.5578 C   0  0  0  0  0  0  0  0  0  0  0  0
   -1.6157  -52.4398  -27.4201 C   0  0  0  0  0  0  0  0  0  0  0  0
   -1.3553  -52.6866  -28.7141 C   0  0  0  0  0  0  0  0  0  0  0  0
   -0.0471  -52.8969  -29.0597 C   0  0  0  0  0  0  0  0  0  0  0  0
    0.7738  -52.7447  -27.5768 S   0  0  0  0  0  0  0  0  0  0  0  0
   -0.8739  -52.2475  -16.3463 C   0  0  0  0  0  0  0  0  0  0  0  0
   -1.6935  -51.0420  -15.9259 C   0  0  0  0  0  0  0  0  0  0  0  0
   -1.3368  -50.7966  -13.4917 C   0  0  0  0  0  0  0  0  0  0  0  0
   -2.0881  -51.1297  -14.5079 C   0  0  0  0  0  0  0  0  0  0  0  0
    0.0249  -50.2835  -13.6567 C   0  0  0  0  0  0  0  0  0  0  0  0
    0.1448  -49.0309  -13.0199 O   0  0  0  0  0  0  0  0  0  0  0  0
    0.4222  -47.9001  -13.7488 C   0  0  0  0  0  0  0  0  0  0  0  0
    1.3291  -47.1273  -13.3767 O   0  0  0  0  0  0  0  0  0  0  0  0
   -0.3291  -47.5485  -14.9913 C   0  0  0  0  0  0  0  0  0  0  0  0
   -1.7256  -45.4727  -15.0299 C   0  0  0  0  0  0  0  0  0  0  0  0
   -1.6511  -46.9101  -14.6243 C   0  0  0  0  0  0  0  0  0  0  0  0
   -2.8191  -47.6555  -15.1991 C   0  0  0  0  0  0  0  0  0  0  0  0
 25 26  1  0  0  0
 26 27  1  0  0  0
 26 24  1  0  0  0
 24 22  1  0  0  0
 22 23  2  0  0  0
 22 21  1  0  0  0
 21 20  1  0  0  0
 20 18  1  0  0  0
 18 19  2  0  0  0
 19 17  1  0  0  0
 17 16  1  0  0  0
 16  1  1  0  0  0
  1  2  1  0  0  0
  2  3  2  0  0  0
  2  5  1  0  0  0
  5  6  2  0  0  0
  6  7  1  0  0  0
  7  8  2  0  0  0
  8  9  1  0  0  0
  9 10  2  0  0  0
 10 11  1  0  0  0
 11 12  2  0  0  0
 12 13  1  0  0  0
 13 14  2  0  0  0
 14 15  1  0  0  0
 15 11  1  0  0  0
  1  4  1  0  0  0
M  END
> <minimizedAffinity>
-5.33038

> <CNNscore>
0.3637271523

> <CNNaffinity>
5.6353516579

> <CNN_VS>
2.0497303009

> <CNNaffinity_variance>
0.1238898411

$$$$
[H]/C(=C(\[H])C([H])([H])C([H])([H])N([H])C(=O)/C([H])=C([H])/C([H])=C([H])/C([H])=C(\[H])c1sc([H])c([H])c1[H])C([H])([H])OC(=O)C([H])([H])C([H])(C([H])([H])[H])C([H])([H])[H]


 27 27  0  0  0  0  0  0  0  0999 V2000
    1.6712  -49.4926  -18.8853 N   0  0  0  0  0  0  0  0  0  0  0  0
    0.6872  -50.4544  -19.1798 C   0  0  0  0  0  0  0  0  0  0  0  0
    0.0558  -50.9830  -18.2311 O   0  0  0  0  0  0  0  0  0  0  0  0
    2.2004  -49.0463  -19.6719 H   0  0  0  0  0  0  0  0  0  0  0  0
    0.3910  -50.8424  -20.5369 C   0  0  0  0  0  0  0  0  0  0  0  0
    1.2683  -51.2767  -21.3953 C   0  0  0  0  0  0  0  0  0  0  0  0
    0.9050  -51.6570  -22.7649 C   0  0  0  0  0  0  0  0  0  0  0  0
   -0.1658  -52.3357  -23.0606 C   0  0  0  0  0  0  0  0  0  0  0  0
   -0.5077  -52.7052  -24.4483 C   0  0  0  0  0  0  0  0  0  0  0  0
   -0.2482  -51.8913  -25.4456 C   0  0  0  0  0  0  0  0  0  0  0  0
   -0.5962  -52.2735  -26.8356 C   0  0  0  0  0  0  0  0  0  0  0  0
   -1.8425  -52.3449  -27.3968 C   0  0  0  0  0  0  0  0  0  0  0  0
   -1.9185  -52.7174  -28.6847 C   0  0  0  0  0  0  0  0  0  0  0  0
   -0.7408  -52.9938  -29.3263 C   0  0  0  0  0  0  0  0  0  0  0  0
    0.4289  -52.7271  -28.1193 S   0  0  0  0  0  0  0  0  0  0  0  0
    2.0038  -49.0743  -17.5454 C   0  0  0  0  0  0  0  0  0  0  0  0
    3.4956  -48.9224  -17.3146 C   0  0  0  0  0  0  0  0  0  0  0  0
    4.7930  -48.7002  -19.4074 C   0  0  0  0  0  0  0  0  0  0  0  0
    4.2704  -49.4335  -18.4602 C   0  0  0  0  0  0  0  0  0  0  0  0
    4.6605  -47.2420  -19.4352 C   0  0  0  0  0  0  0  0  0  0  0  0
    3.4099  -46.8855  -19.9807 O   0  0  0  0  0  0  0  0  0  0  0  0
    3.1012  -47.1961  -21.2828 C   0  0  0  0  0  0  0  0  0  0  0  0
    2.1428  -47.9564  -21.5302 O   0  0  0  0  0  0  0  0  0  0  0  0
    3.8782  -46.6529  -22.4373 C   0  0  0  0  0  0  0  0  0  0  0  0
    4.6847  -44.2844  -22.4610 C   0  0  0  0  0  0  0  0  0  0  0  0
    3.5180  -45.1994  -22.6556 C   0  0  0  0  0  0  0  0  0  0  0  0
    2.9139  -44.9626  -24.0081 C   0  0  0  0  0  0  0  0  0  0  0  0
 25 26  1  0  0  0
 26 27  1  0  0  0
 26 24  1  0  0  0
 24 22  1  0  0  0
 22 23  2  0  0  0
 22 21  1  0  0  0
 21 20  1  0  0  0
 20 18  1  0  0  0
 18 19  2  0  0  0
 19 17  1  0  0  0
 17 16  1  0  0  0
 16  1  1  0  0  0
  1  2  1  0  0  0
  2  3  2  0  0  0
  2  5  1  0  0  0
  5  6  2  0  0  0
  6  7  1  0  0  0
  7  8  2  0  0  0
  8  9  1  0  0  0
  9 10  2  0  0  0
 10 11  1  0  0  0
 11 12  2  0  0  0
 12 13  1  0  0  0
 13 14  2  0  0  0
 14 15  1  0  0  0
 15 11  1  0  0  0
  1  4  1  0  0  0
M  END
> <minimizedAffinity>
-5.09605

> <CNNscore>
0.3630464077

> <CNNaffinity>
5.9964003563

> <CNN_VS>
2.1769716740

> <CNNaffinity_variance>
0.2563287616

$$$$
[H]/C(=C(\[H])C([H])([H])C([H])([H])N([H])C(=O)/C([H])=C([H])/C([H])=C([H])/C([H])=C(\[H])c1sc([H])c([H])c1[H])C([H])([H])OC(=O)C([H])([H])C([H])(C([H])([H])[H])C([H])([H])[H]


 27 27  0  0  0  0  0  0  0  0999 V2000
    1.4268  -50.9257  -18.5232 N   0  0  0  0  0  0  0  0  0  0  0  0
    0.3513  -51.6860  -19.0184 C   0  0  0  0  0  0  0  0  0  0  0  0
   -0.4585  -52.1909  -18.2014 O   0  0  0  0  0  0  0  0  0  0  0  0
    2.1050  -50.5001  -19.1992 H   0  0  0  0  0  0  0  0  0  0  0  0
    0.1611  -51.8958  -20.4325 C   0  0  0  0  0  0  0  0  0  0  0  0
    1.0556  -52.3908  -21.2387 C   0  0  0  0  0  0  0  0  0  0  0  0
    0.8022  -52.5807  -22.6712 C   0  0  0  0  0  0  0  0  0  0  0  0
   -0.3302  -53.0107  -23.1484 C   0  0  0  0  0  0  0  0  0  0  0  0
   -0.5584  -53.1926  -24.5954 C   0  0  0  0  0  0  0  0  0  0  0  0
   -0.0721  -52.3391  -25.4668 C   0  0  0  0  0  0  0  0  0  0  0  0
   -0.3079  -52.5325  -26.9180 C   0  0  0  0  0  0  0  0  0  0  0  0
   -1.5025  -52.4897  -27.5848 C   0  0  0  0  0  0  0  0  0  0  0  0
   -1.4760  -52.6957  -28.9115 C   0  0  0  0  0  0  0  0  0  0  0  0
   -0.2543  -52.9310  -29.4835 C   0  0  0  0  0  0  0  0  0  0  0  0
    0.8129  -52.8581  -28.1600 S   0  0  0  0  0  0  0  0  0  0  0  0
    1.6593  -50.6905  -17.1192 C   0  0  0  0  0  0  0  0  0  0  0  0
    3.1287  -50.5559  -16.7661 C   0  0  0  0  0  0  0  0  0  0  0  0
    4.3106  -49.0208  -18.3021 C   0  0  0  0  0  0  0  0  0  0  0  0
    3.9373  -50.2239  -17.9535 C   0  0  0  0  0  0  0  0  0  0  0  0
    3.9533  -47.8318  -17.5254 C   0  0  0  0  0  0  0  0  0  0  0  0
    3.3047  -46.8947  -18.3561 O   0  0  0  0  0  0  0  0  0  0  0  0
    3.9730  -46.3089  -19.4036 C   0  0  0  0  0  0  0  0  0  0  0  0
    3.5003  -46.3740  -20.5570 O   0  0  0  0  0  0  0  0  0  0  0  0
    5.2658  -45.5836  -19.2183 C   0  0  0  0  0  0  0  0  0  0  0  0
    4.3041  -43.3665  -19.8666 C   0  0  0  0  0  0  0  0  0  0  0  0
    4.9936  -44.1552  -18.7994 C   0  0  0  0  0  0  0  0  0  0  0  0
    4.2019  -44.0791  -17.5275 C   0  0  0  0  0  0  0  0  0  0  0  0
 25 26  1  0  0  0
 26 27  1  0  0  0
 26 24  1  0  0  0
 24 22  1  0  0  0
 22 23  2  0  0  0
 22 21  1  0  0  0
 21 20  1  0  0  0
 20 18  1  0  0  0
 18 19  2  0  0  0
 19 17  1  0  0  0
 17 16  1  0  0  0
 16  1  1  0  0  0
  1  2  1  0  0  0
  2  3  2  0  0  0
  2  5  1  0  0  0
  5  6  2  0  0  0
  6  7  1  0  0  0
  7  8  2  0  0  0
  8  9  1  0  0  0
  9 10  2  0  0  0
 10 11  1  0  0  0
 11 12  2  0  0  0
 12 13  1  0  0  0
 13 14  2  0  0  0
 14 15  1  0  0  0
 15 11  1  0  0  0
  1  4  1  0  0  0
M  END
> <minimizedAffinity>
-4.88632

> <CNNscore>
0.3399840295

> <CNNaffinity>
5.7242345810

> <CNN_VS>
1.9461483955

> <CNNaffinity_variance>
0.4806165099

$$$$
[H]/C(=C(\[H])C([H])([H])C([H])([H])N([H])C(=O)/C([H])=C([H])/C([H])=C([H])/C([H])=C(\[H])c1sc([H])c([H])c1[H])C([H])([H])OC(=O)C([H])([H])C([H])(C([H])([H])[H])C([H])([H])[H]


 27 27  0  0  0  0  0  0  0  0999 V2000
    1.2522  -50.8603  -18.0203 N   0  0  0  0  0  0  0  0  0  0  0  0
    2.1083  -51.2533  -19.0655 C   0  0  0  0  0  0  0  0  0  0  0  0
    3.2615  -51.6623  -18.7806 O   0  0  0  0  0  0  0  0  0  0  0  0
    0.2883  -50.5200  -18.2507 H   0  0  0  0  0  0  0  0  0  0  0  0
    1.6928  -51.1971  -20.4454 C   0  0  0  0  0  0  0  0  0  0  0  0
    2.5006  -51.1229  -21.4637 C   0  0  0  0  0  0  0  0  0  0  0  0
    2.0165  -51.0686  -22.8476 C   0  0  0  0  0  0  0  0  0  0  0  0
    1.1572  -51.9134  -23.3404 C   0  0  0  0  0  0  0  0  0  0  0  0
    0.6867  -51.8356  -24.7374 C   0  0  0  0  0  0  0  0  0  0  0  0
    0.3291  -52.9181  -25.3891 C   0  0  0  0  0  0  0  0  0  0  0  0
   -0.1421  -52.8275  -26.7923 C   0  0  0  0  0  0  0  0  0  0  0  0
   -1.4163  -52.5931  -27.2336 C   0  0  0  0  0  0  0  0  0  0  0  0
   -1.6114  -52.5530  -28.5616 C   0  0  0  0  0  0  0  0  0  0  0  0
   -0.5171  -52.7503  -29.3606 C   0  0  0  0  0  0  0  0  0  0  0  0
    0.7425  -52.9843  -28.2405 S   0  0  0  0  0  0  0  0  0  0  0  0
    1.6235  -50.8966  -16.6269 C   0  0  0  0  0  0  0  0  0  0  0  0
    2.1902  -49.5837  -16.1199 C   0  0  0  0  0  0  0  0  0  0  0  0
    0.0317  -48.4339  -15.7568 C   0  0  0  0  0  0  0  0  0  0  0  0
    1.2247  -48.4822  -16.2885 C   0  0  0  0  0  0  0  0  0  0  0  0
   -0.4936  -49.5056  -14.9081 C   0  0  0  0  0  0  0  0  0  0  0  0
   -1.7693  -49.8962  -15.3652 O   0  0  0  0  0  0  0  0  0  0  0  0
   -2.1403  -51.2189  -15.3556 C   0  0  0  0  0  0  0  0  0  0  0  0
   -1.7493  -51.9809  -16.2636 O   0  0  0  0  0  0  0  0  0  0  0  0
   -3.0082  -51.7953  -14.2850 C   0  0  0  0  0  0  0  0  0  0  0  0
   -4.0018  -49.8216  -13.1113 C   0  0  0  0  0  0  0  0  0  0  0  0
   -4.2308  -50.9240  -14.0955 C   0  0  0  0  0  0  0  0  0  0  0  0
   -4.7217  -50.3475  -15.3904 C   0  0  0  0  0  0  0  0  0  0  0  0
 25 26  1  0  0  0
 26 27  1  0  0  0
 26 24  1  0  0  0
 24 22  1  0  0  0
 22 23  2  0  0  0
 22 21  1  0  0  0
 21 20  1  0  0  0
 20 18  1  0  0  0
 18 19  2  0  0  0
 19 17  1  0  0  0
 17 16  1  0  0  0
 16  1  1  0  0  0
  1  2  1  0  0  0
  2  3  2  0  0  0
  2  5  1  0  0  0
  5  6  2  0  0  0
  6  7  1  0  0  0
  7  8  2  0  0  0
  8  9  1  0  0  0
  9 10  2  0  0  0
 10 11  1  0  0  0
 11 12  2  0  0  0
 12 13  1  0  0  0
 13 14  2  0  0  0
 14 15  1  0  0  0
 15 11  1  0  0  0
  1  4  1  0  0  0
M  END
> <minimizedAffinity>
-5.17487

> <CNNscore>
0.2945764065

> <CNNaffinity>
5.6664443016

> <CNN_VS>
1.6692007780

> <CNNaffinity_variance>
0.3064220250

$$$$
[H]/C(=C(\[H])C([H])([H])C([H])([H])N([H])C(=O)/C([H])=C([H])/C([H])=C([H])/C([H])=C(\[H])c1sc([H])c([H])c1[H])C([H])([H])OC(=O)C([H])([H])C([H])(C([H])([H])[H])C([H])([H])[H]


 27 27  0  0  0  0  0  0  0  0999 V2000
   -2.7790  -52.6978  -16.9458 N   0  0  0  0  0  0  0  0  0  0  0  0
   -1.4634  -52.8157  -17.4307 C   0  0  0  0  0  0  0  0  0  0  0  0
   -0.5086  -52.6917  -16.6238 O   0  0  0  0  0  0  0  0  0  0  0  0
   -3.5801  -52.8021  -17.6132 H   0  0  0  0  0  0  0  0  0  0  0  0
   -1.1907  -53.0740  -18.8232 C   0  0  0  0  0  0  0  0  0  0  0  0
   -0.1046  -52.7194  -19.4473 C   0  0  0  0  0  0  0  0  0  0  0  0
    0.1155  -53.0115  -20.8681 C   0  0  0  0  0  0  0  0  0  0  0  0
   -0.8446  -53.3044  -21.6971 C   0  0  0  0  0  0  0  0  0  0  0  0
   -0.5950  -53.5942  -23.1229 C   0  0  0  0  0  0  0  0  0  0  0  0
   -0.5859  -52.6304  -24.0147 C   0  0  0  0  0  0  0  0  0  0  0  0
   -0.3339  -52.9338  -25.4443 C   0  0  0  0  0  0  0  0  0  0  0  0
   -0.5489  -52.1195  -26.5232 C   0  0  0  0  0  0  0  0  0  0  0  0
   -0.2446  -52.6093  -27.7359 C   0  0  0  0  0  0  0  0  0  0  0  0
    0.2554  -53.8830  -27.7884 C   0  0  0  0  0  0  0  0  0  0  0  0
    0.2850  -54.3546  -26.1536 S   0  0  0  0  0  0  0  0  0  0  0  0
   -3.1009  -52.4381  -15.5639 C   0  0  0  0  0  0  0  0  0  0  0  0
   -4.0023  -51.2330  -15.3716 C   0  0  0  0  0  0  0  0  0  0  0  0
   -3.6578  -50.2584  -13.1256 C   0  0  0  0  0  0  0  0  0  0  0  0
   -4.3240  -51.0257  -13.9477 C   0  0  0  0  0  0  0  0  0  0  0  0
   -2.4791  -49.4964  -13.5436 C   0  0  0  0  0  0  0  0  0  0  0  0
   -2.7403  -48.1146  -13.4376 O   0  0  0  0  0  0  0  0  0  0  0  0
   -2.4907  -47.2731  -14.4944 C   0  0  0  0  0  0  0  0  0  0  0  0
   -2.7077  -47.6591  -15.6613 O   0  0  0  0  0  0  0  0  0  0  0  0
   -1.9603  -45.8896  -14.3033 C   0  0  0  0  0  0  0  0  0  0  0  0
    0.3521  -45.4130  -15.1319 C   0  0  0  0  0  0  0  0  0  0  0  0
   -0.4772  -45.9483  -14.0085 C   0  0  0  0  0  0  0  0  0  0  0  0
   -0.1236  -45.2334  -12.7380 C   0  0  0  0  0  0  0  0  0  0  0  0
 25 26  1  0  0  0
 26 27  1  0  0  0
 26 24  1  0  0  0
 24 22  1  0  0  0
 22 23  2  0  0  0
 22 21  1  0  0  0
 21 20  1  0  0  0
 20 18  1  0  0  0
 18 19  2  0  0  0
 19 17  1  0  0  0
 17 16  1  0  0  0
 16  1  1  0  0  0
  1  2  1  0  0  0
  2  3  2  0  0  0
  2  5  1  0  0  0
  5  6  2  0  0  0
  6  7  1  0  0  0
  7  8  2  0  0  0
  8  9  1  0  0  0
  9 10  2  0  0  0
 10 11  1  0  0  0
 11 12  2  0  0  0
 12 13  1  0  0  0
 13 14  2  0  0  0
 14 15  1  0  0  0
 15 11  1  0  0  0
  1  4  1  0  0  0
M  END
> <minimizedAffinity>
-4.88732

> <CNNscore>
0.2685584724

> <CNNaffinity>
5.4720339775

> <CNN_VS>
1.4695611000

> <CNNaffinity_variance>
0.2182577401

$$$$
[H]Oc1nc(N([H])c2c([H])c(OC([H])([H])[H])c([H])c([H])c2OC([H])([H])[H])c([H])c2c([H])c([H])c([H])c([H])c12


 24 26  0  0  0  0  0  0  0  0999 V2000
   -0.7976  -53.3333  -18.7204 N   0  0  0  0  0  0  0  0  0  0  0  0
   -0.9446  -54.2819  -18.2083 H   0  0  0  0  0  0  0  0  0  0  0  0
   -0.7380  -53.4244  -20.1083 C   0  0  0  0  0  0  0  0  0  0  0  0
   -0.0228  -52.4648  -20.8246 C   0  0  0  0  0  0  0  0  0  0  0  0
    0.0652  -52.5130  -22.2047 C   0  0  0  0  0  0  0  0  0  0  0  0
    0.7707  -51.5678  -22.9223 C   0  0  0  0  0  0  0  0  0  0  0  0
    0.8283  -51.6594  -24.2934 C   0  0  0  0  0  0  0  0  0  0  0  0
    0.1994  -52.6694  -24.9533 C   0  0  0  0  0  0  0  0  0  0  0  0
   -0.5030  -53.6111  -24.2441 C   0  0  0  0  0  0  0  0  0  0  0  0
   -0.5658  -53.5279  -22.8789 C   0  0  0  0  0  0  0  0  0  0  0  0
   -1.2688  -54.4688  -22.1566 C   0  0  0  0  0  0  0  0  0  0  0  0
   -1.9083  -55.4959  -22.8305 O   0  0  0  0  0  0  0  0  0  0  0  0
   -1.3135  -54.3630  -20.8252 N   0  0  0  0  0  0  0  0  0  0  0  0
   -1.4103  -56.3705  -22.9021 H   0  0  0  0  0  0  0  0  0  0  0  0
    0.3650  -50.1667  -17.0819 C   0  0  0  0  0  0  0  0  0  0  0  0
   -0.5969  -50.0699  -16.1107 C   0  0  0  0  0  0  0  0  0  0  0  0
   -1.6005  -51.0064  -15.9860 C   0  0  0  0  0  0  0  0  0  0  0  0
   -1.6551  -52.0830  -16.8577 C   0  0  0  0  0  0  0  0  0  0  0  0
   -0.7011  -52.2305  -17.8650 C   0  0  0  0  0  0  0  0  0  0  0  0
    0.2841  -51.2648  -17.9475 C   0  0  0  0  0  0  0  0  0  0  0  0
    2.1114  -48.9979  -18.3587 C   0  0  0  0  0  0  0  0  0  0  0  0
    1.3734  -49.2162  -17.1991 O   0  0  0  0  0  0  0  0  0  0  0  0
   -2.6486  -53.0388  -16.7589 O   0  0  0  0  0  0  0  0  0  0  0  0
   -3.9477  -52.6534  -16.3226 C   0  0  0  0  0  0  0  0  0  0  0  0
 21 22  1  0  0  0
 22 15  1  0  0  0
 15 16  2  0  0  0
 16 17  1  0  0  0
 17 18  2  0  0  0
 18 23  1  0  0  0
 23 24  1  0  0  0
 18 19  1  0  0  0
 19  1  1  0  0  0
  1  3  1  0  0  0
  3  4  2  0  0  0
  4  5  1  0  0  0
  5  6  2  0  0  0
  6  7  1  0  0  0
  7  8  2  0  0  0
  8  9  1  0  0  0
  9 10  2  0  0  0
 10 11  1  0  0  0
 11 12  1  0  0  0
 11 13  2  0  0  0
 19 20  2  0  0  0
 20 15  1  0  0  0
 13  3  1  0  0  0
 10  5  1  0  0  0
  1  2  1  0  0  0
 12 14  1  0  0  0
M  END
> <minimizedAffinity>
-7.80102

> <CNNscore>
0.8738333583

> <CNNaffinity>
5.8248105049

> <CNN_VS>
5.0899138451

> <CNNaffinity_variance>
0.0382898636

$$$$
[H]Oc1nc(N([H])c2c([H])c(OC([H])([H])[H])c([H])c([H])c2OC([H])([H])[H])c([H])c2c([H])c([H])c([H])c([H])c12


 24 26  0  0  0  0  0  0  0  0999 V2000
   -0.0286  -53.3718  -18.9779 N   0  0  0  0  0  0  0  0  0  0  0  0
    0.8400  -53.9120  -18.6072 H   0  0  0  0  0  0  0  0  0  0  0  0
   -0.2292  -53.4657  -20.3524 C   0  0  0  0  0  0  0  0  0  0  0  0
    0.3626  -52.5240  -21.1939 C   0  0  0  0  0  0  0  0  0  0  0  0
    0.1923  -52.5756  -22.5661 C   0  0  0  0  0  0  0  0  0  0  0  0
    0.7741  -51.6481  -23.4071 C   0  0  0  0  0  0  0  0  0  0  0  0
    0.5746  -51.7425  -24.7646 C   0  0  0  0  0  0  0  0  0  0  0  0
   -0.1886  -52.7382  -25.2912 C   0  0  0  0  0  0  0  0  0  0  0  0
   -0.7689  -53.6623  -24.4591 C   0  0  0  0  0  0  0  0  0  0  0  0
   -0.5758  -53.5762  -23.1063 C   0  0  0  0  0  0  0  0  0  0  0  0
   -1.1542  -54.4995  -22.2613 C   0  0  0  0  0  0  0  0  0  0  0  0
   -1.9307  -55.5121  -22.7995 O   0  0  0  0  0  0  0  0  0  0  0  0
   -0.9490  -54.3913  -20.9452 N   0  0  0  0  0  0  0  0  0  0  0  0
   -1.4748  -56.3982  -22.9574 H   0  0  0  0  0  0  0  0  0  0  0  0
   -2.6883  -52.4302  -16.5075 C   0  0  0  0  0  0  0  0  0  0  0  0
   -2.1120  -51.2930  -16.0049 C   0  0  0  0  0  0  0  0  0  0  0  0
   -0.8905  -50.8384  -16.4530 C   0  0  0  0  0  0  0  0  0  0  0  0
   -0.2108  -51.5371  -17.4388 C   0  0  0  0  0  0  0  0  0  0  0  0
   -0.7515  -52.7012  -17.9856 C   0  0  0  0  0  0  0  0  0  0  0  0
   -1.9784  -53.1147  -17.5021 C   0  0  0  0  0  0  0  0  0  0  0  0
   -4.7276  -52.1788  -15.1569 C   0  0  0  0  0  0  0  0  0  0  0  0
   -3.9214  -52.8804  -16.0483 O   0  0  0  0  0  0  0  0  0  0  0  0
    1.0157  -51.1072  -17.9094 O   0  0  0  0  0  0  0  0  0  0  0  0
    2.0343  -50.7512  -16.9808 C   0  0  0  0  0  0  0  0  0  0  0  0
 21 22  1  0  0  0
 22 15  1  0  0  0
 15 16  2  0  0  0
 16 17  1  0  0  0
 17 18  2  0  0  0
 18 23  1  0  0  0
 23 24  1  0  0  0
 18 19  1  0  0  0
 19  1  1  0  0  0
  1  3  1  0  0  0
  3  4  2  0  0  0
  4  5  1  0  0  0
  5  6  2  0  0  0
  6  7  1  0  0  0
  7  8  2  0  0  0
  8  9  1  0  0  0
  9 10  2  0  0  0
 10 11  1  0  0  0
 11 12  1  0  0  0
 11 13  2  0  0  0
 19 20  2  0  0  0
 20 15  1  0  0  0
 13  3  1  0  0  0
 10  5  1  0  0  0
  1  2  1  0  0  0
 12 14  1  0  0  0
M  END
> <minimizedAffinity>
-7.56298

> <CNNscore>
0.7986665368

> <CNNaffinity>
5.7935247421

> <CNN_VS>
4.6270942688

> <CNNaffinity_variance>
0.0468267277

$$$$
[H]Oc1nc(N([H])c2c([H])c(OC([H])([H])[H])c([H])c([H])c2OC([H])([H])[H])c([H])c2c([H])c([H])c([H])c([H])c12


 24 26  0  0  0  0  0  0  0  0999 V2000
   -0.7231  -52.4541  -21.1679 N   0  0  0  0  0  0  0  0  0  0  0  0
   -1.5181  -52.9207  -20.5900 H   0  0  0  0  0  0  0  0  0  0  0  0
   -0.5589  -52.9670  -22.4517 C   0  0  0  0  0  0  0  0  0  0  0  0
    0.0344  -52.1727  -23.4326 C   0  0  0  0  0  0  0  0  0  0  0  0
    0.2191  -52.6380  -24.7226 C   0  0  0  0  0  0  0  0  0  0  0  0
    0.8054  -51.8592  -25.7002 C   0  0  0  0  0  0  0  0  0  0  0  0
    0.9667  -52.3676  -26.9680 C   0  0  0  0  0  0  0  0  0  0  0  0
    0.5563  -53.6285  -27.2726 C   0  0  0  0  0  0  0  0  0  0  0  0
   -0.0270  -54.4062  -26.3041 C   0  0  0  0  0  0  0  0  0  0  0  0
   -0.1916  -53.9084  -25.0392 C   0  0  0  0  0  0  0  0  0  0  0  0
   -0.7765  -54.6813  -24.0586 C   0  0  0  0  0  0  0  0  0  0  0  0
   -1.1935  -55.9645  -24.3710 O   0  0  0  0  0  0  0  0  0  0  0  0
   -0.9247  -54.1700  -22.8328 N   0  0  0  0  0  0  0  0  0  0  0  0
   -0.5552  -56.7146  -24.1522 H   0  0  0  0  0  0  0  0  0  0  0  0
    1.1155  -49.2806  -20.3858 C   0  0  0  0  0  0  0  0  0  0  0  0
    1.3049  -49.4756  -19.0427 C   0  0  0  0  0  0  0  0  0  0  0  0
    0.8492  -50.6073  -18.4014 C   0  0  0  0  0  0  0  0  0  0  0  0
    0.1785  -51.5865  -19.1179 C   0  0  0  0  0  0  0  0  0  0  0  0
   -0.0417  -51.4392  -20.4877 C   0  0  0  0  0  0  0  0  0  0  0  0
    0.4350  -50.2867  -21.0831 C   0  0  0  0  0  0  0  0  0  0  0  0
    2.3864  -48.1432  -22.1572 C   0  0  0  0  0  0  0  0  0  0  0  0
    1.5794  -48.1349  -21.0233 O   0  0  0  0  0  0  0  0  0  0  0  0
   -0.2906  -52.7326  -18.5041 O   0  0  0  0  0  0  0  0  0  0  0  0
   -1.1102  -52.6190  -17.3456 C   0  0  0  0  0  0  0  0  0  0  0  0
 21 22  1  0  0  0
 22 15  1  0  0  0
 15 16  2  0  0  0
 16 17  1  0  0  0
 17 18  2  0  0  0
 18 23  1  0  0  0
 23 24  1  0  0  0
 18 19  1  0  0  0
 19  1  1  0  0  0
  1  3  1  0  0  0
  3  4  2  0  0  0
  4  5  1  0  0  0
  5  6  2  0  0  0
  6  7  1  0  0  0
  7  8  2  0  0  0
  8  9  1  0  0  0
  9 10  2  0  0  0
 10 11  1  0  0  0
 11 12  1  0  0  0
 11 13  2  0  0  0
 19 20  2  0  0  0
 20 15  1  0  0  0
 13  3  1  0  0  0
 10  5  1  0  0  0
  1  2  1  0  0  0
 12 14  1  0  0  0
M  END
> <minimizedAffinity>
-7.46122

> <CNNscore>
0.7380539775

> <CNNaffinity>
5.9317374229

> <CNN_VS>
4.3779425621

> <CNNaffinity_variance>
0.1163020507

$$$$
[H]Oc1nc(N([H])c2c([H])c(OC([H])([H])[H])c([H])c([H])c2OC([H])([H])[H])c([H])c2c([H])c([H])c([H])c([H])c12


 24 26  0  0  0  0  0  0  0  0999 V2000
    1.6983  -52.8222  -23.6983 N   0  0  0  0  0  0  0  0  0  0  0  0
    2.5021  -53.4992  -23.4168 H   0  0  0  0  0  0  0  0  0  0  0  0
    1.3264  -52.8858  -25.0384 C   0  0  0  0  0  0  0  0  0  0  0  0
    0.0033  -52.6221  -25.3922 C   0  0  0  0  0  0  0  0  0  0  0  0
   -0.4142  -52.6730  -26.7104 C   0  0  0  0  0  0  0  0  0  0  0  0
   -1.7215  -52.4135  -27.0703 C   0  0  0  0  0  0  0  0  0  0  0  0
   -2.0871  -52.4770  -28.3947 C   0  0  0  0  0  0  0  0  0  0  0  0
   -1.1776  -52.7920  -29.3563 C   0  0  0  0  0  0  0  0  0  0  0  0
    0.1231  -53.0506  -29.0033 C   0  0  0  0  0  0  0  0  0  0  0  0
    0.4960  -52.9898  -27.6872 C   0  0  0  0  0  0  0  0  0  0  0  0
    1.8002  -53.2478  -27.3216 C   0  0  0  0  0  0  0  0  0  0  0  0
    2.7242  -53.5683  -28.3021 O   0  0  0  0  0  0  0  0  0  0  0  0
    2.1363  -53.1814  -26.0299 N   0  0  0  0  0  0  0  0  0  0  0  0
    3.2946  -52.8132  -28.6520 H   0  0  0  0  0  0  0  0  0  0  0  0
    0.9333  -49.9035  -21.4714 C   0  0  0  0  0  0  0  0  0  0  0  0
    0.2156  -50.5607  -20.5065 C   0  0  0  0  0  0  0  0  0  0  0  0
   -0.0174  -51.9175  -20.5720 C   0  0  0  0  0  0  0  0  0  0  0  0
    0.4798  -52.6549  -21.6355 C   0  0  0  0  0  0  0  0  0  0  0  0
    1.2172  -52.0365  -22.6456 C   0  0  0  0  0  0  0  0  0  0  0  0
    1.4229  -50.6745  -22.5332 C   0  0  0  0  0  0  0  0  0  0  0  0
    2.2832  -47.8984  -21.9226 C   0  0  0  0  0  0  0  0  0  0  0  0
    1.1627  -48.5339  -21.3958 O   0  0  0  0  0  0  0  0  0  0  0  0
    0.2635  -54.0168  -21.7300 O   0  0  0  0  0  0  0  0  0  0  0  0
   -1.0337  -54.4962  -22.0679 C   0  0  0  0  0  0  0  0  0  0  0  0
 21 22  1  0  0  0
 22 15  1  0  0  0
 15 16  2  0  0  0
 16 17  1  0  0  0
 17 18  2  0  0  0
 18 23  1  0  0  0
 23 24  1  0  0  0
 18 19  1  0  0  0
 19  1  1  0  0  0
  1  3  1  0  0  0
  3  4  2  0  0  0
  4  5  1  0  0  0
  5  6  2  0  0  0
  6  7  1  0  0  0
  7  8  2  0  0  0
  8  9  1  0  0  0
  9 10  2  0  0  0
 10 11  1  0  0  0
 11 12  1  0  0  0
 11 13  2  0  0  0
 19 20  2  0  0  0
 20 15  1  0  0  0
 13  3  1  0  0  0
 10  5  1  0  0  0
  1  2  1  0  0  0
 12 14  1  0  0  0
M  END
> <minimizedAffinity>
-8.13340

> <CNNscore>
0.6477319598

> <CNNaffinity>
5.8920769691

> <CNN_VS>
3.8164865971

> <CNNaffinity_variance>
0.1213819236

$$$$
[H]Oc1nc(N([H])c2c([H])c(OC([H])([H])[H])c([H])c([H])c2OC([H])([H])[H])c([H])c2c([H])c([H])c([H])c([H])c12


 24 26  0  0  0  0  0  0  0  0999 V2000
    1.0520  -52.0157  -23.5284 N   0  0  0  0  0  0  0  0  0  0  0  0
    1.9852  -51.4593  -23.5867 H   0  0  0  0  0  0  0  0  0  0  0  0
    0.5659  -52.2029  -22.2373 C   0  0  0  0  0  0  0  0  0  0  0  0
    0.9184  -51.2964  -21.2377 C   0  0  0  0  0  0  0  0  0  0  0  0
    0.4605  -51.4403  -19.9400 C   0  0  0  0  0  0  0  0  0  0  0  0
    0.8039  -50.5482  -18.9439 C   0  0  0  0  0  0  0  0  0  0  0  0
    0.3227  -50.7349  -17.6690 C   0  0  0  0  0  0  0  0  0  0  0  0
   -0.4880  -51.7874  -17.3753 C   0  0  0  0  0  0  0  0  0  0  0  0
   -0.8319  -52.6767  -18.3622 C   0  0  0  0  0  0  0  0  0  0  0  0
   -0.3576  -52.4987  -19.6342 C   0  0  0  0  0  0  0  0  0  0  0  0
   -0.6971  -53.3863  -20.6333 C   0  0  0  0  0  0  0  0  0  0  0  0
   -1.5223  -54.4568  -20.3319 O   0  0  0  0  0  0  0  0  0  0  0  0
   -0.2197  -53.1884  -21.8657 N   0  0  0  0  0  0  0  0  0  0  0  0
   -2.5059  -54.3393  -20.5236 H   0  0  0  0  0  0  0  0  0  0  0  0
   -1.2204  -52.5663  -26.4603 C   0  0  0  0  0  0  0  0  0  0  0  0
   -0.3591  -53.2691  -27.2617 C   0  0  0  0  0  0  0  0  0  0  0  0
    0.9284  -53.5600  -26.8654 C   0  0  0  0  0  0  0  0  0  0  0  0
    1.3832  -53.1385  -25.6255 C   0  0  0  0  0  0  0  0  0  0  0  0
    0.5484  -52.4195  -24.7695 C   0  0  0  0  0  0  0  0  0  0  0  0
   -0.7330  -52.1538  -25.2138 C   0  0  0  0  0  0  0  0  0  0  0  0
   -3.0047  -52.5172  -28.1515 C   0  0  0  0  0  0  0  0  0  0  0  0
   -2.5178  -52.2780  -26.8699 O   0  0  0  0  0  0  0  0  0  0  0  0
    2.6687  -53.4142  -25.1989 O   0  0  0  0  0  0  0  0  0  0  0  0
    3.7411  -52.5835  -25.6306 C   0  0  0  0  0  0  0  0  0  0  0  0
 21 22  1  0  0  0
 22 15  1  0  0  0
 15 16  2  0  0  0
 16 17  1  0  0  0
 17 18  2  0  0  0
 18 23  1  0  0  0
 23 24  1  0  0  0
 18 19  1  0  0  0
 19  1  1  0  0  0
  1  3  1  0  0  0
  3  4  2  0  0  0
  4  5  1  0  0  0
  5  6  2  0  0  0
  6  7  1  0  0  0
  7  8  2  0  0  0
  8  9  1  0  0  0
  9 10  2  0  0  0
 10 11  1  0  0  0
 11 12  1  0  0  0
 11 13  2  0  0  0
 19 20  2  0  0  0
 20 15  1  0  0  0
 13  3  1  0  0  0
 10  5  1  0  0  0
  1  2  1  0  0  0
 12 14  1  0  0  0
M  END
> <minimizedAffinity>
-7.78135

> <CNNscore>
0.6162161827

> <CNNaffinity>
5.8463392258

> <CNN_VS>
3.6026089191

> <CNNaffinity_variance>
0.0701217800

$$$$
[H]Oc1nc(N([H])c2c([H])c(OC([H])([H])[H])c([H])c([H])c2OC([H])([H])[H])c([H])c2c([H])c([H])c([H])c([H])c12


 24 26  0  0  0  0  0  0  0  0999 V2000
    2.0316  -52.5126  -23.9020 N   0  0  0  0  0  0  0  0  0  0  0  0
    3.0539  -52.8534  -23.7521 H   0  0  0  0  0  0  0  0  0  0  0  0
    1.5475  -52.6767  -25.1970 C   0  0  0  0  0  0  0  0  0  0  0  0
    0.2071  -52.3990  -25.4642 C   0  0  0  0  0  0  0  0  0  0  0  0
   -0.3202  -52.5469  -26.7349 C   0  0  0  0  0  0  0  0  0  0  0  0
   -1.6456  -52.2745  -27.0091 C   0  0  0  0  0  0  0  0  0  0  0  0
   -2.1220  -52.4373  -28.2890 C   0  0  0  0  0  0  0  0  0  0  0  0
   -1.3048  -52.8633  -29.2899 C   0  0  0  0  0  0  0  0  0  0  0  0
    0.0133  -53.1354  -29.0220 C   0  0  0  0  0  0  0  0  0  0  0  0
    0.4963  -52.9761  -27.7508 C   0  0  0  0  0  0  0  0  0  0  0  0
    1.8191  -53.2466  -27.4707 C   0  0  0  0  0  0  0  0  0  0  0  0
    2.6490  -53.6801  -28.4911 O   0  0  0  0  0  0  0  0  0  0  0  0
    2.2635  -53.0825  -26.2212 N   0  0  0  0  0  0  0  0  0  0  0  0
    3.2083  -52.9772  -28.9505 H   0  0  0  0  0  0  0  0  0  0  0  0
    0.0851  -52.1739  -20.7146 C   0  0  0  0  0  0  0  0  0  0  0  0
    0.2753  -50.8344  -20.4962 C   0  0  0  0  0  0  0  0  0  0  0  0
    1.0161  -50.0555  -21.3588 C   0  0  0  0  0  0  0  0  0  0  0  0
    1.5927  -50.6247  -22.4838 C   0  0  0  0  0  0  0  0  0  0  0  0
    1.4310  -51.9837  -22.7546 C   0  0  0  0  0  0  0  0  0  0  0  0
    0.6794  -52.7206  -21.8589 C   0  0  0  0  0  0  0  0  0  0  0  0
   -0.7465  -52.7245  -18.4671 C   0  0  0  0  0  0  0  0  0  0  0  0
   -0.6642  -52.9509  -19.8378 O   0  0  0  0  0  0  0  0  0  0  0  0
    2.3411  -49.8707  -23.3681 O   0  0  0  0  0  0  0  0  0  0  0  0
    2.8344  -48.5996  -22.9586 C   0  0  0  0  0  0  0  0  0  0  0  0
 21 22  1  0  0  0
 22 15  1  0  0  0
 15 16  2  0  0  0
 16 17  1  0  0  0
 17 18  2  0  0  0
 18 23  1  0  0  0
 23 24  1  0  0  0
 18 19  1  0  0  0
 19  1  1  0  0  0
  1  3  1  0  0  0
  3  4  2  0  0  0
  4  5  1  0  0  0
  5  6  2  0  0  0
  6  7  1  0  0  0
  7  8  2  0  0  0
  8  9  1  0  0  0
  9 10  2  0  0  0
 10 11  1  0  0  0
 11 12  1  0  0  0
 11 13  2  0  0  0
 19 20  2  0  0  0
 20 15  1  0  0  0
 13  3  1  0  0  0
 10  5  1  0  0  0
  1  2  1  0  0  0
 12 14  1  0  0  0
M  END
> <minimizedAffinity>
-7.91064

> <CNNscore>
0.6122809649

> <CNNaffinity>
5.9911637306

> <CNN_VS>
3.6682755947

> <CNNaffinity_variance>
0.0925291032

$$$$
[H]Oc1nc(N([H])c2c([H])c(OC([H])([H])[H])c([H])c([H])c2OC([H])([H])[H])c([H])c2c([H])c([H])c([H])c([H])c12


 24 26  0  0  0  0  0  0  0  0999 V2000
   -0.5698  -53.2382  -19.0613 N   0  0  0  0  0  0  0  0  0  0  0  0
   -0.3838  -54.3087  -19.0074 H   0  0  0  0  0  0  0  0  0  0  0  0
   -1.1759  -52.6952  -17.9317 C   0  0  0  0  0  0  0  0  0  0  0  0
   -2.4546  -53.1209  -17.5726 C   0  0  0  0  0  0  0  0  0  0  0  0
   -3.0979  -52.6108  -16.4588 C   0  0  0  0  0  0  0  0  0  0  0  0
   -4.3634  -53.0260  -16.0955 C   0  0  0  0  0  0  0  0  0  0  0  0
   -4.9605  -52.4884  -14.9792 C   0  0  0  0  0  0  0  0  0  0  0  0
   -4.3210  -51.5523  -14.2270 C   0  0  0  0  0  0  0  0  0  0  0  0
   -3.0630  -51.1366  -14.5843 C   0  0  0  0  0  0  0  0  0  0  0  0
   -2.4608  -51.6663  -15.6941 C   0  0  0  0  0  0  0  0  0  0  0  0
   -1.1970  -51.2557  -16.0620 C   0  0  0  0  0  0  0  0  0  0  0  0
   -0.5479  -50.3027  -15.2949 O   0  0  0  0  0  0  0  0  0  0  0  0
   -0.6333  -51.7894  -17.1498 N   0  0  0  0  0  0  0  0  0  0  0  0
    0.0985  -50.6437  -14.5994 H   0  0  0  0  0  0  0  0  0  0  0  0
    0.9481  -50.8766  -21.5477 C   0  0  0  0  0  0  0  0  0  0  0  0
    0.6219  -51.5472  -22.6974 C   0  0  0  0  0  0  0  0  0  0  0  0
   -0.0734  -52.7369  -22.6722 C   0  0  0  0  0  0  0  0  0  0  0  0
   -0.4622  -53.2862  -21.4601 C   0  0  0  0  0  0  0  0  0  0  0  0
   -0.1564  -52.6454  -20.2592 C   0  0  0  0  0  0  0  0  0  0  0  0
    0.5421  -51.4555  -20.3388 C   0  0  0  0  0  0  0  0  0  0  0  0
    1.1752  -48.4765  -21.0634 C   0  0  0  0  0  0  0  0  0  0  0  0
    1.6501  -49.6766  -21.5842 O   0  0  0  0  0  0  0  0  0  0  0  0
   -1.1605  -54.4775  -21.4013 O   0  0  0  0  0  0  0  0  0  0  0  0
   -1.4881  -55.1556  -22.6095 C   0  0  0  0  0  0  0  0  0  0  0  0
 21 22  1  0  0  0
 22 15  1  0  0  0
 15 16  2  0  0  0
 16 17  1  0  0  0
 17 18  2  0  0  0
 18 23  1  0  0  0
 23 24  1  0  0  0
 18 19  1  0  0  0
 19  1  1  0  0  0
  1  3  1  0  0  0
  3  4  2  0  0  0
  4  5  1  0  0  0
  5  6  2  0  0  0
  6  7  1  0  0  0
  7  8  2  0  0  0
  8  9  1  0  0  0
  9 10  2  0  0  0
 10 11  1  0  0  0
 11 12  1  0  0  0
 11 13  2  0  0  0
 19 20  2  0  0  0
 20 15  1  0  0  0
 13  3  1  0  0  0
 10  5  1  0  0  0
  1  2  1  0  0  0
 12 14  1  0  0  0
M  END
> <minimizedAffinity>
-6.75378

> <CNNscore>
0.6098473072

> <CNNaffinity>
5.4211411476

> <CNN_VS>
3.3060684204

> <CNNaffinity_variance>
0.0893385559

$$$$
[H]Oc1nc(N([H])c2c([H])c(OC([H])([H])[H])c([H])c([H])c2OC([H])([H])[H])c([H])c2c([H])c([H])c([H])c([H])c12


 24 26  0  0  0  0  0  0  0  0999 V2000
    1.9340  -52.8578  -23.7630 N   0  0  0  0  0  0  0  0  0  0  0  0
    1.8032  -53.7827  -23.2052 H   0  0  0  0  0  0  0  0  0  0  0  0
    1.4876  -52.9049  -25.0808 C   0  0  0  0  0  0  0  0  0  0  0  0
    0.1499  -52.6238  -25.3581 C   0  0  0  0  0  0  0  0  0  0  0  0
   -0.3407  -52.6578  -26.6515 C   0  0  0  0  0  0  0  0  0  0  0  0
   -1.6630  -52.3811  -26.9358 C   0  0  0  0  0  0  0  0  0  0  0  0
   -2.1022  -52.4282  -28.2383 C   0  0  0  0  0  0  0  0  0  0  0  0
   -1.2511  -52.7439  -29.2517 C   0  0  0  0  0  0  0  0  0  0  0  0
    0.0642  -53.0197  -28.9739 C   0  0  0  0  0  0  0  0  0  0  0  0
    0.5103  -52.9752  -27.6801 C   0  0  0  0  0  0  0  0  0  0  0  0
    1.8298  -53.2506  -27.3898 C   0  0  0  0  0  0  0  0  0  0  0  0
    2.6943  -53.5717  -28.4230 O   0  0  0  0  0  0  0  0  0  0  0  0
    2.2378  -53.1999  -26.1183 N   0  0  0  0  0  0  0  0  0  0  0  0
    3.2527  -52.8195  -28.7975 H   0  0  0  0  0  0  0  0  0  0  0  0
    2.4255  -49.8373  -21.5955 C   0  0  0  0  0  0  0  0  0  0  0  0
    3.7955  -49.8057  -21.5905 C   0  0  0  0  0  0  0  0  0  0  0  0
    4.5464  -50.7392  -22.2720 C   0  0  0  0  0  0  0  0  0  0  0  0
    3.9164  -51.7455  -22.9879 C   0  0  0  0  0  0  0  0  0  0  0  0
    2.5241  -51.8247  -23.0271 C   0  0  0  0  0  0  0  0  0  0  0  0
    1.8174  -50.8650  -22.3273 C   0  0  0  0  0  0  0  0  0  0  0  0
    1.3517  -48.9842  -19.5545 C   0  0  0  0  0  0  0  0  0  0  0  0
    1.6773  -48.8904  -20.9044 O   0  0  0  0  0  0  0  0  0  0  0  0
    4.6409  -52.6964  -23.6817 O   0  0  0  0  0  0  0  0  0  0  0  0
    5.8507  -52.3174  -24.3293 C   0  0  0  0  0  0  0  0  0  0  0  0
 21 22  1  0  0  0
 22 15  1  0  0  0
 15 16  2  0  0  0
 16 17  1  0  0  0
 17 18  2  0  0  0
 18 23  1  0  0  0
 23 24  1  0  0  0
 18 19  1  0  0  0
 19  1  1  0  0  0
  1  3  1  0  0  0
  3  4  2  0  0  0
  4  5  1  0  0  0
  5  6  2  0  0  0
  6  7  1  0  0  0
  7  8  2  0  0  0
  8  9  1  0  0  0
  9 10  2  0  0  0
 10 11  1  0  0  0
 11 12  1  0  0  0
 11 13  2  0  0  0
 19 20  2  0  0  0
 20 15  1  0  0  0
 13  3  1  0  0  0
 10  5  1  0  0  0
  1  2  1  0  0  0
 12 14  1  0  0  0
M  END
> <minimizedAffinity>
-7.24362

> <CNNscore>
0.6023919582

> <CNNaffinity>
5.8894376755

> <CNN_VS>
3.5477499962

> <CNNaffinity_variance>
0.0818251669

$$$$
[H]Oc1nc(N([H])c2c([H])c(OC([H])([H])[H])c([H])c([H])c2OC([H])([H])[H])c([H])c2c([H])c([H])c([H])c([H])c12


 24 26  0  0  0  0  0  0  0  0999 V2000
   -0.9129  -53.4782  -24.6166 N   0  0  0  0  0  0  0  0  0  0  0  0
   -1.8380  -54.0144  -24.8172 H   0  0  0  0  0  0  0  0  0  0  0  0
   -0.7181  -53.1329  -23.2821 C   0  0  0  0  0  0  0  0  0  0  0  0
   -0.0353  -51.9561  -22.9748 C   0  0  0  0  0  0  0  0  0  0  0  0
    0.1830  -51.5707  -21.6639 C   0  0  0  0  0  0  0  0  0  0  0  0
    0.8576  -50.4078  -21.3500 C   0  0  0  0  0  0  0  0  0  0  0  0
    1.0492  -50.0684  -20.0309 C   0  0  0  0  0  0  0  0  0  0  0  0
    0.5828  -50.8632  -19.0301 C   0  0  0  0  0  0  0  0  0  0  0  0
   -0.0883  -52.0201  -19.3374 C   0  0  0  0  0  0  0  0  0  0  0  0
   -0.2838  -52.3660  -20.6477 C   0  0  0  0  0  0  0  0  0  0  0  0
   -0.9567  -53.5261  -20.9676 C   0  0  0  0  0  0  0  0  0  0  0  0
   -1.4306  -54.3336  -19.9471 O   0  0  0  0  0  0  0  0  0  0  0  0
   -1.1330  -53.8391  -22.2548 N   0  0  0  0  0  0  0  0  0  0  0  0
   -2.3961  -54.2096  -19.6818 H   0  0  0  0  0  0  0  0  0  0  0  0
    2.0300  -53.1091  -26.9115 C   0  0  0  0  0  0  0  0  0  0  0  0
    1.3575  -52.7926  -28.0627 C   0  0  0  0  0  0  0  0  0  0  0  0
   -0.0172  -52.6998  -28.0991 C   0  0  0  0  0  0  0  0  0  0  0  0
   -0.7573  -52.9296  -26.9496 C   0  0  0  0  0  0  0  0  0  0  0  0
   -0.1238  -53.2553  -25.7500 C   0  0  0  0  0  0  0  0  0  0  0  0
    1.2558  -53.3357  -25.7665 C   0  0  0  0  0  0  0  0  0  0  0  0
    4.2096  -52.7734  -25.8237 C   0  0  0  0  0  0  0  0  0  0  0  0
    3.4175  -53.2002  -26.8855 O   0  0  0  0  0  0  0  0  0  0  0  0
   -2.1369  -52.8443  -26.9533 O   0  0  0  0  0  0  0  0  0  0  0  0
   -2.8122  -52.5006  -28.1586 C   0  0  0  0  0  0  0  0  0  0  0  0
 21 22  1  0  0  0
 22 15  1  0  0  0
 15 16  2  0  0  0
 16 17  1  0  0  0
 17 18  2  0  0  0
 18 23  1  0  0  0
 23 24  1  0  0  0
 18 19  1  0  0  0
 19  1  1  0  0  0
  1  3  1  0  0  0
  3  4  2  0  0  0
  4  5  1  0  0  0
  5  6  2  0  0  0
  6  7  1  0  0  0
  7  8  2  0  0  0
  8  9  1  0  0  0
  9 10  2  0  0  0
 10 11  1  0  0  0
 11 12  1  0  0  0
 11 13  2  0  0  0
 19 20  2  0  0  0
 20 15  1  0  0  0
 13  3  1  0  0  0
 10  5  1  0  0  0
  1  2  1  0  0  0
 12 14  1  0  0  0
M  END
> <minimizedAffinity>
-7.63596

> <CNNscore>
0.5585729480

> <CNNaffinity>
5.9278459549

> <CNN_VS>
3.3111343384

> <CNNaffinity_variance>
0.1237995848

$$$$
[H]Oc1c([H])c2c(c([H])c1O[H])[C@]1([H])c3c(sc(Cl)c3[H])C([H])([H])N([H])[C@@]1([H])C([H])([H])C2([H])[H]


 23 26  0  0  0  0  0  0  0  0999 V2000
   -0.9329  -54.4678  -20.2289 O   0  0  0  0  0  0  0  0  0  0  0  0
   -0.4552  -53.9465  -21.4167 C   0  0  0  0  0  0  0  0  0  0  0  0
    0.5560  -53.0028  -21.3481 C   0  0  0  0  0  0  0  0  0  0  0  0
    1.0349  -52.4817  -22.5066 C   0  0  0  0  0  0  0  0  0  0  0  0
    0.5129  -52.8925  -23.7451 C   0  0  0  0  0  0  0  0  0  0  0  0
   -0.4821  -53.8236  -23.7988 C   0  0  0  0  0  0  0  0  0  0  0  0
   -0.9854  -54.3697  -22.6110 C   0  0  0  0  0  0  0  0  0  0  0  0
   -1.9952  -55.3171  -22.6051 O   0  0  0  0  0  0  0  0  0  0  0  0
    1.1612  -52.2091  -24.8822 C   0  0  0  0  0  0  0  0  0  0  0  0
    0.5695  -52.4590  -26.2166 C   0  0  0  0  0  0  0  0  0  0  0  0
   -0.7597  -52.4004  -26.5309 C   0  0  0  0  0  0  0  0  0  0  0  0
   -1.1019  -52.6580  -27.8193 C   0  0  0  0  0  0  0  0  0  0  0  0
   -2.7117  -52.6628  -28.5294 Cl  0  0  0  0  0  0  0  0  0  0  0  0
    0.3925  -52.9730  -28.5721 S   0  0  0  0  0  0  0  0  0  0  0  0
    1.4177  -52.7705  -27.2369 C   0  0  0  0  0  0  0  0  0  0  0  0
    2.9047  -52.8563  -27.0952 C   0  0  0  0  0  0  0  0  0  0  0  0
    3.2857  -52.0142  -25.9661 N   0  0  0  0  0  0  0  0  0  0  0  0
    2.6049  -52.5347  -24.8053 C   0  0  0  0  0  0  0  0  0  0  0  0
    3.2026  -51.9956  -23.5183 C   0  0  0  0  0  0  0  0  0  0  0  0
    2.1410  -51.4791  -22.5586 C   0  0  0  0  0  0  0  0  0  0  0  0
   -0.5658  -54.1791  -19.3333 H   0  0  0  0  0  0  0  0  0  0  0  0
   -2.4335  -55.6774  -23.4248 H   0  0  0  0  0  0  0  0  0  0  0  0
    4.3158  -52.0266  -25.8936 H   0  0  0  0  0  0  0  0  0  0  0  0
  1  2  1  0  0  0
  2  3  2  0  0  0
  3  4  1  0  0  0
  4  5  2  0  0  0
  5  6  1  0  0  0
  6  7  2  0  0  0
  7  8  1  0  0  0
  5  9  1  0  0  0
  9 10  1  0  0  0
 10 11  1  0  0  0
 11 12  2  0  0  0
 12 13  1  0  0  0
 12 14  1  0  0  0
 14 15  1  0  0  0
 15 16  1  0  0  0
 16 17  1  0  0  0
 17 18  1  0  0  0
 18 19  1  0  0  0
 19 20  1  0  0  0
  7  2  1  0  0  0
 18  9  1  0  0  0
 20  4  1  0  0  0
 15 10  2  0  0  0
  1 21  1  0  0  0
  8 22  1  0  0  0
 17 23  1  0  0  0
M  END
> <minimizedAffinity>
-9.73830

> <CNNscore>
0.8429270387

> <CNNaffinity>
6.3471264839

> <CNN_VS>
5.3501644135

> <CNNaffinity_variance>
0.0916375294

$$$$
[H]Oc1c([H])c2c(c([H])c1O[H])[C@]1([H])c3c(sc(Cl)c3[H])C([H])([H])N([H])[C@@]1([H])C([H])([H])C2([H])[H]


 23 26  0  0  0  0  0  0  0  0999 V2000
   -1.9286  -54.3786  -20.1485 O   0  0  0  0  0  0  0  0  0  0  0  0
   -1.2003  -53.7462  -21.1386 C   0  0  0  0  0  0  0  0  0  0  0  0
   -0.5156  -52.5912  -20.7997 C   0  0  0  0  0  0  0  0  0  0  0  0
    0.2038  -51.9590  -21.7620 C   0  0  0  0  0  0  0  0  0  0  0  0
    0.2491  -52.4680  -23.0712 C   0  0  0  0  0  0  0  0  0  0  0  0
   -0.4289  -53.6070  -23.3916 C   0  0  0  0  0  0  0  0  0  0  0  0
   -1.1750  -54.2695  -22.4083 C   0  0  0  0  0  0  0  0  0  0  0  0
   -1.8833  -55.4287  -22.6766 O   0  0  0  0  0  0  0  0  0  0  0  0
    1.0788  -51.6384  -23.9677 C   0  0  0  0  0  0  0  0  0  0  0  0
    1.0576  -52.0063  -25.4021 C   0  0  0  0  0  0  0  0  0  0  0  0
   -0.0577  -52.2599  -26.1510 C   0  0  0  0  0  0  0  0  0  0  0  0
    0.1341  -52.5769  -27.4572 C   0  0  0  0  0  0  0  0  0  0  0  0
   -1.0857  -52.9540  -28.6679 Cl  0  0  0  0  0  0  0  0  0  0  0  0
    1.8266  -52.5218  -27.6352 S   0  0  0  0  0  0  0  0  0  0  0  0
    2.2531  -52.0975  -26.0500 C   0  0  0  0  0  0  0  0  0  0  0  0
    3.5778  -51.8312  -25.4077 C   0  0  0  0  0  0  0  0  0  0  0  0
    3.3448  -50.9353  -24.2797 N   0  0  0  0  0  0  0  0  0  0  0  0
    2.4406  -51.6146  -23.3837 C   0  0  0  0  0  0  0  0  0  0  0  0
    2.4186  -50.9637  -22.0125 C   0  0  0  0  0  0  0  0  0  0  0  0
    1.0035  -50.7231  -21.5084 C   0  0  0  0  0  0  0  0  0  0  0  0
   -1.9689  -54.0212  -19.2046 H   0  0  0  0  0  0  0  0  0  0  0  0
   -1.9180  -55.8733  -23.5681 H   0  0  0  0  0  0  0  0  0  0  0  0
    4.2608  -50.7048  -23.8622 H   0  0  0  0  0  0  0  0  0  0  0  0
  1  2  1  0  0  0
  2  3  2  0  0  0
  3  4  1  0  0  0
  4  5  2  0  0  0
  5  6  1  0  0  0
  6  7  2  0  0  0
  7  8  1  0  0  0
  5  9  1  0  0  0
  9 10  1  0  0  0
 10 11  1  0  0  0
 11 12  2  0  0  0
 12 13  1  0  0  0
 12 14  1  0  0  0
 14 15  1  0  0  0
 15 16  1  0  0  0
 16 17  1  0  0  0
 17 18  1  0  0  0
 18 19  1  0  0  0
 19 20  1  0  0  0
  7  2  1  0  0  0
 18  9  1  0  0  0
 20  4  1  0  0  0
 15 10  2  0  0  0
  1 21  1  0  0  0
  8 22  1  0  0  0
 17 23  1  0  0  0
M  END
> <minimizedAffinity>
-9.01340

> <CNNscore>
0.6955242157

> <CNNaffinity>
6.1644873619

> <CNN_VS>
4.2875504494

> <CNNaffinity_variance>
0.0361008234

$$$$
[H]Oc1c([H])c2c(c([H])c1O[H])[C@]1([H])c3c(sc(Cl)c3[H])C([H])([H])N([H])[C@@]1([H])C([H])([H])C2([H])[H]


 23 26  0  0  0  0  0  0  0  0999 V2000
    4.9733  -47.1206  -27.0674 O   0  0  0  0  0  0  0  0  0  0  0  0
    4.6959  -47.5627  -25.7875 C   0  0  0  0  0  0  0  0  0  0  0  0
    5.5128  -47.1214  -24.7600 C   0  0  0  0  0  0  0  0  0  0  0  0
    5.2526  -47.5477  -23.4975 C   0  0  0  0  0  0  0  0  0  0  0  0
    4.1783  -48.4175  -23.2437 C   0  0  0  0  0  0  0  0  0  0  0  0
    3.3808  -48.8437  -24.2645 C   0  0  0  0  0  0  0  0  0  0  0  0
    3.6378  -48.4116  -25.5720 C   0  0  0  0  0  0  0  0  0  0  0  0
    2.8621  -48.8123  -26.6467 O   0  0  0  0  0  0  0  0  0  0  0  0
    4.0642  -48.7664  -21.8135 C   0  0  0  0  0  0  0  0  0  0  0  0
    3.0614  -49.8015  -21.4726 C   0  0  0  0  0  0  0  0  0  0  0  0
    2.9000  -51.0036  -22.1033 C   0  0  0  0  0  0  0  0  0  0  0  0
    1.9224  -51.8210  -21.6346 C   0  0  0  0  0  0  0  0  0  0  0  0
    1.4705  -53.4149  -22.2269 Cl  0  0  0  0  0  0  0  0  0  0  0  0
    1.2470  -50.9350  -20.3469 S   0  0  0  0  0  0  0  0  0  0  0  0
    2.2193  -49.5485  -20.4313 C   0  0  0  0  0  0  0  0  0  0  0  0
    2.2591  -48.3026  -19.6039 C   0  0  0  0  0  0  0  0  0  0  0  0
    3.6131  -47.7651  -19.6873 N   0  0  0  0  0  0  0  0  0  0  0  0
    3.8718  -47.4929  -21.0805 C   0  0  0  0  0  0  0  0  0  0  0  0
    5.0793  -46.5904  -21.2587 C   0  0  0  0  0  0  0  0  0  0  0  0
    6.0468  -47.1180  -22.3076 C   0  0  0  0  0  0  0  0  0  0  0  0
    5.7432  -46.4962  -27.2614 H   0  0  0  0  0  0  0  0  0  0  0  0
    2.0785  -49.4247  -26.5778 H   0  0  0  0  0  0  0  0  0  0  0  0
    3.6633  -46.9335  -19.0771 H   0  0  0  0  0  0  0  0  0  0  0  0
  1  2  1  0  0  0
  2  3  2  0  0  0
  3  4  1  0  0  0
  4  5  2  0  0  0
  5  6  1  0  0  0
  6  7  2  0  0  0
  7  8  1  0  0  0
  5  9  1  0  0  0
  9 10  1  0  0  0
 10 11  1  0  0  0
 11 12  2  0  0  0
 12 13  1  0  0  0
 12 14  1  0  0  0
 14 15  1  0  0  0
 15 16  1  0  0  0
 16 17  1  0  0  0
 17 18  1  0  0  0
 18 19  1  0  0  0
 19 20  1  0  0  0
  7  2  1  0  0  0
 18  9  1  0  0  0
 20  4  1  0  0  0
 15 10  2  0  0  0
  1 21  1  0  0  0
  8 22  1  0  0  0
 17 23  1  0  0  0
M  END
> <minimizedAffinity>
-2.93663

> <CNNscore>
0.4325114191

> <CNNaffinity>
5.2897877693

> <CNN_VS>
2.2878935337

> <CNNaffinity_variance>
1.5664474964

$$$$
[H]Oc1c([H])c2c(c([H])c1O[H])[C@]1([H])c3c(sc(Cl)c3[H])C([H])([H])N([H])[C@@]1([H])C([H])([H])C2([H])[H]


 23 26  0  0  0  0  0  0  0  0999 V2000
    1.3927  -50.8482  -20.5823 O   0  0  0  0  0  0  0  0  0  0  0  0
    1.5353  -51.0050  -21.9482 C   0  0  0  0  0  0  0  0  0  0  0  0
    1.7040  -49.8648  -22.7156 C   0  0  0  0  0  0  0  0  0  0  0  0
    1.8450  -50.0034  -24.0588 C   0  0  0  0  0  0  0  0  0  0  0  0
    1.8188  -51.2767  -24.6529 C   0  0  0  0  0  0  0  0  0  0  0  0
    1.6531  -52.3918  -23.8855 C   0  0  0  0  0  0  0  0  0  0  0  0
    1.5067  -52.2633  -22.4983 C   0  0  0  0  0  0  0  0  0  0  0  0
    1.3347  -53.3599  -21.6705 O   0  0  0  0  0  0  0  0  0  0  0  0
    1.9845  -51.2159  -26.1189 C   0  0  0  0  0  0  0  0  0  0  0  0
    1.8113  -52.4930  -26.8484 C   0  0  0  0  0  0  0  0  0  0  0  0
    0.7839  -53.3799  -26.6846 C   0  0  0  0  0  0  0  0  0  0  0  0
    0.8026  -54.4966  -27.4568 C   0  0  0  0  0  0  0  0  0  0  0  0
   -0.3635  -55.8139  -27.4799 Cl  0  0  0  0  0  0  0  0  0  0  0  0
    2.2167  -54.3128  -28.3873 S   0  0  0  0  0  0  0  0  0  0  0  0
    2.7523  -52.8243  -27.7771 C   0  0  0  0  0  0  0  0  0  0  0  0
    3.9335  -51.9708  -28.1158 C   0  0  0  0  0  0  0  0  0  0  0  0
    3.5874  -50.5928  -27.7830 N   0  0  0  0  0  0  0  0  0  0  0  0
    3.2910  -50.5635  -26.3711 C   0  0  0  0  0  0  0  0  0  0  0  0
    3.2893  -49.1453  -25.8299 C   0  0  0  0  0  0  0  0  0  0  0  0
    2.0600  -48.8501  -24.9835 C   0  0  0  0  0  0  0  0  0  0  0  0
    1.4091  -49.9379  -20.1449 H   0  0  0  0  0  0  0  0  0  0  0  0
    1.3024  -54.3046  -21.9873 H   0  0  0  0  0  0  0  0  0  0  0  0
    4.3781  -49.9901  -28.0621 H   0  0  0  0  0  0  0  0  0  0  0  0
  1  2  1  0  0  0
  2  3  2  0  0  0
  3  4  1  0  0  0
  4  5  2  0  0  0
  5  6  1  0  0  0
  6  7  2  0  0  0
  7  8  1  0  0  0
  5  9  1  0  0  0
  9 10  1  0  0  0
 10 11  1  0  0  0
 11 12  2  0  0  0
 12 13  1  0  0  0
 12 14  1  0  0  0
 14 15  1  0  0  0
 15 16  1  0  0  0
 16 17  1  0  0  0
 17 18  1  0  0  0
 18 19  1  0  0  0
 19 20  1  0  0  0
  7  2  1  0  0  0
 18  9  1  0  0  0
 20  4  1  0  0  0
 15 10  2  0  0  0
  1 21  1  0  0  0
  8 22  1  0  0  0
 17 23  1  0  0  0
M  END
> <minimizedAffinity>
0.05158

> <CNNscore>
0.4108283520

> <CNNaffinity>
5.5406279564

> <CNN_VS>
2.2762470245

> <CNNaffinity_variance>
1.1731035709

$$$$
[H]Oc1c([H])c2c(c([H])c1O[H])[C@]1([H])c3c(sc(Cl)c3[H])C([H])([H])N([H])[C@@]1([H])C([H])([H])C2([H])[H]


 23 26  0  0  0  0  0  0  0  0999 V2000
   -1.0433  -58.7773  -27.4647 O   0  0  0  0  0  0  0  0  0  0  0  0
   -0.9533  -57.6400  -26.6841 C   0  0  0  0  0  0  0  0  0  0  0  0
   -0.8729  -57.8030  -25.3112 C   0  0  0  0  0  0  0  0  0  0  0  0
   -0.7845  -56.6950  -24.5318 C   0  0  0  0  0  0  0  0  0  0  0  0
   -0.7759  -55.4136  -25.1090 C   0  0  0  0  0  0  0  0  0  0  0  0
   -0.8545  -55.2670  -26.4625 C   0  0  0  0  0  0  0  0  0  0  0  0
   -0.9460  -56.4019  -27.2786 C   0  0  0  0  0  0  0  0  0  0  0  0
   -1.0290  -56.3132  -28.6580 O   0  0  0  0  0  0  0  0  0  0  0  0
   -0.6777  -54.3427  -24.0971 C   0  0  0  0  0  0  0  0  0  0  0  0
   -0.8216  -52.9566  -24.5984 C   0  0  0  0  0  0  0  0  0  0  0  0
   -1.7974  -52.5036  -25.4420 C   0  0  0  0  0  0  0  0  0  0  0  0
   -1.7593  -51.1896  -25.7818 C   0  0  0  0  0  0  0  0  0  0  0  0
   -2.8612  -50.3143  -26.8378 Cl  0  0  0  0  0  0  0  0  0  0  0  0
   -0.3977  -50.6020  -24.9450 S   0  0  0  0  0  0  0  0  0  0  0  0
    0.0925  -52.0350  -24.1828 C   0  0  0  0  0  0  0  0  0  0  0  0
    1.2157  -52.3334  -23.2406 C   0  0  0  0  0  0  0  0  0  0  0  0
    0.8192  -53.4859  -22.4383 N   0  0  0  0  0  0  0  0  0  0  0  0
    0.5839  -54.5749  -23.3551 C   0  0  0  0  0  0  0  0  0  0  0  0
    0.5383  -55.9109  -22.6359 C   0  0  0  0  0  0  0  0  0  0  0  0
   -0.6654  -56.7473  -23.0437 C   0  0  0  0  0  0  0  0  0  0  0  0
   -1.0512  -59.7029  -27.0605 H   0  0  0  0  0  0  0  0  0  0  0  0
   -1.0301  -55.4564  -29.1677 H   0  0  0  0  0  0  0  0  0  0  0  0
    1.5674  -53.6665  -21.7497 H   0  0  0  0  0  0  0  0  0  0  0  0
  1  2  1  0  0  0
  2  3  2  0  0  0
  3  4  1  0  0  0
  4  5  2  0  0  0
  5  6  1  0  0  0
  6  7  2  0  0  0
  7  8  1  0  0  0
  5  9  1  0  0  0
  9 10  1  0  0  0
 10 11  1  0  0  0
 11 12  2  0  0  0
 12 13  1  0  0  0
 12 14  1  0  0  0
 14 15  1  0  0  0
 15 16  1  0  0  0
 16 17  1  0  0  0
 17 18  1  0  0  0
 18 19  1  0  0  0
 19 20  1  0  0  0
  7  2  1  0  0  0
 18  9  1  0  0  0
 20  4  1  0  0  0
 15 10  2  0  0  0
  1 21  1  0  0  0
  8 22  1  0  0  0
 17 23  1  0  0  0
M  END
> <minimizedAffinity>
34.67231

> <CNNscore>
0.3973818123

> <CNNaffinity>
5.4838709831

> <CNN_VS>
2.1791906357

> <CNNaffinity_variance>
1.3191878796

$$$$
[H]Oc1c([H])c2c(c([H])c1O[H])[C@]1([H])c3c(sc(Cl)c3[H])C([H])([H])N([H])[C@@]1([H])C([H])([H])C2([H])[H]


 23 26  0  0  0  0  0  0  0  0999 V2000
   -1.3422  -54.4184  -20.3143 O   0  0  0  0  0  0  0  0  0  0  0  0
   -0.6985  -53.2721  -19.8875 C   0  0  0  0  0  0  0  0  0  0  0  0
   -0.9684  -52.8176  -18.6075 C   0  0  0  0  0  0  0  0  0  0  0  0
   -0.3438  -51.6925  -18.1748 C   0  0  0  0  0  0  0  0  0  0  0  0
    0.5548  -51.0073  -19.0103 C   0  0  0  0  0  0  0  0  0  0  0  0
    0.8127  -51.4662  -20.2684 C   0  0  0  0  0  0  0  0  0  0  0  0
    0.1752  -52.6260  -20.7276 C   0  0  0  0  0  0  0  0  0  0  0  0
    0.3981  -53.1370  -21.9951 O   0  0  0  0  0  0  0  0  0  0  0  0
    1.1250  -49.8105  -18.3600 C   0  0  0  0  0  0  0  0  0  0  0  0
    1.9590  -48.9373  -19.2173 C   0  0  0  0  0  0  0  0  0  0  0  0
    1.6343  -48.4909  -20.4681 C   0  0  0  0  0  0  0  0  0  0  0  0
    2.5360  -47.6899  -21.0917 C   0  0  0  0  0  0  0  0  0  0  0  0
    2.4123  -46.9631  -22.6892 Cl  0  0  0  0  0  0  0  0  0  0  0  0
    3.8032  -47.5628  -19.9615 S   0  0  0  0  0  0  0  0  0  0  0  0
    3.1615  -48.5274  -18.7236 C   0  0  0  0  0  0  0  0  0  0  0  0
    3.6786  -48.8890  -17.3671 C   0  0  0  0  0  0  0  0  0  0  0  0
    2.5250  -49.1835  -16.5234 N   0  0  0  0  0  0  0  0  0  0  0  0
    1.8227  -50.2824  -17.1407 C   0  0  0  0  0  0  0  0  0  0  0  0
    0.8380  -50.9258  -16.1813 C   0  0  0  0  0  0  0  0  0  0  0  0
   -0.5346  -51.1239  -16.8068 C   0  0  0  0  0  0  0  0  0  0  0  0
   -1.9906  -54.9183  -19.7226 H   0  0  0  0  0  0  0  0  0  0  0  0
    1.0144  -52.7309  -22.6652 H   0  0  0  0  0  0  0  0  0  0  0  0
    2.8705  -49.3835  -15.5709 H   0  0  0  0  0  0  0  0  0  0  0  0
  1  2  1  0  0  0
  2  3  2  0  0  0
  3  4  1  0  0  0
  4  5  2  0  0  0
  5  6  1  0  0  0
  6  7  2  0  0  0
  7  8  1  0  0  0
  5  9  1  0  0  0
  9 10  1  0  0  0
 10 11  1  0  0  0
 11 12  2  0  0  0
 12 13  1  0  0  0
 12 14  1  0  0  0
 14 15  1  0  0  0
 15 16  1  0  0  0
 16 17  1  0  0  0
 17 18  1  0  0  0
 18 19  1  0  0  0
 19 20  1  0  0  0
  7  2  1  0  0  0
 18  9  1  0  0  0
 20  4  1  0  0  0
 15 10  2  0  0  0
  1 21  1  0  0  0
  8 22  1  0  0  0
 17 23  1  0  0  0
M  END
> <minimizedAffinity>
-6.50949

> <CNNscore>
0.3683668971

> <CNNaffinity>
4.8605880737

> <CNN_VS>
1.7904797792

> <CNNaffinity_variance>
0.0367528386

$$$$
[H]Oc1c([H])c2c(c([H])c1O[H])[C@]1([H])c3c(sc(Cl)c3[H])C([H])([H])N([H])[C@@]1([H])C([H])([H])C2([H])[H]


 23 26  0  0  0  0  0  0  0  0999 V2000
   -1.4524  -52.8547  -29.2873 O   0  0  0  0  0  0  0  0  0  0  0  0
   -0.7981  -52.6263  -28.0914 C   0  0  0  0  0  0  0  0  0  0  0  0
    0.5860  -52.5868  -28.1091 C   0  0  0  0  0  0  0  0  0  0  0  0
    1.2423  -52.3637  -26.9417 C   0  0  0  0  0  0  0  0  0  0  0  0
    0.5295  -52.1784  -25.7448 C   0  0  0  0  0  0  0  0  0  0  0  0
   -0.8336  -52.2185  -25.7413 C   0  0  0  0  0  0  0  0  0  0  0  0
   -1.5235  -52.4477  -26.9388 C   0  0  0  0  0  0  0  0  0  0  0  0
   -2.9061  -52.4995  -26.9946 O   0  0  0  0  0  0  0  0  0  0  0  0
    1.4210  -51.9537  -24.5894 C   0  0  0  0  0  0  0  0  0  0  0  0
    0.7680  -51.9067  -23.2611 C   0  0  0  0  0  0  0  0  0  0  0  0
   -0.1471  -52.8027  -22.7826 C   0  0  0  0  0  0  0  0  0  0  0  0
   -0.6268  -52.5870  -21.5308 C   0  0  0  0  0  0  0  0  0  0  0  0
   -1.8025  -53.5494  -20.6436 Cl  0  0  0  0  0  0  0  0  0  0  0  0
    0.1790  -51.1714  -21.0348 S   0  0  0  0  0  0  0  0  0  0  0  0
    1.1062  -50.8848  -22.4251 C   0  0  0  0  0  0  0  0  0  0  0  0
    2.1066  -49.8237  -22.7593 C   0  0  0  0  0  0  0  0  0  0  0  0
    3.0182  -50.3796  -23.7539 N   0  0  0  0  0  0  0  0  0  0  0  0
    2.2191  -50.7439  -24.8988 C   0  0  0  0  0  0  0  0  0  0  0  0
    3.0780  -50.9751  -26.1289 C   0  0  0  0  0  0  0  0  0  0  0  0
    2.7300  -52.2728  -26.8425 C   0  0  0  0  0  0  0  0  0  0  0  0
   -0.9502  -52.9901  -30.1532 H   0  0  0  0  0  0  0  0  0  0  0  0
   -3.5060  -52.3807  -26.2073 H   0  0  0  0  0  0  0  0  0  0  0  0
    3.7431  -49.6712  -23.9518 H   0  0  0  0  0  0  0  0  0  0  0  0
  1  2  1  0  0  0
  2  3  2  0  0  0
  3  4  1  0  0  0
  4  5  2  0  0  0
  5  6  1  0  0  0
  6  7  2  0  0  0
  7  8  1  0  0  0
  5  9  1  0  0  0
  9 10  1  0  0  0
 10 11  1  0  0  0
 11 12  2  0  0  0
 12 13  1  0  0  0
 12 14  1  0  0  0
 14 15  1  0  0  0
 15 16  1  0  0  0
 16 17  1  0  0  0
 17 18  1  0  0  0
 18 19  1  0  0  0
 19 20  1  0  0  0
  7  2  1  0  0  0
 18  9  1  0  0  0
 20  4  1  0  0  0
 15 10  2  0  0  0
  1 21  1  0  0  0
  8 22  1  0  0  0
 17 23  1  0  0  0
M  END
> <minimizedAffinity>
-8.82395

> <CNNscore>
0.3665044010

> <CNNaffinity>
5.8951363564

> <CNN_VS>
2.1605935097

> <CNNaffinity_variance>
0.0650278330

$$$$
[H]Oc1c([H])c2c(c([H])c1O[H])[C@]1([H])c3c(sc(Cl)c3[H])C([H])([H])N([H])[C@@]1([H])C([H])([H])C2([H])[H]


 23 26  0  0  0  0  0  0  0  0999 V2000
    4.6260  -50.0420  -25.8585 O   0  0  0  0  0  0  0  0  0  0  0  0
    3.5117  -50.6487  -25.3097 C   0  0  0  0  0  0  0  0  0  0  0  0
    2.4143  -50.8482  -26.1304 C   0  0  0  0  0  0  0  0  0  0  0  0
    1.3125  -51.4425  -25.6049 C   0  0  0  0  0  0  0  0  0  0  0  0
    1.2901  -51.8438  -24.2583 C   0  0  0  0  0  0  0  0  0  0  0  0
    2.3781  -51.6425  -23.4611 C   0  0  0  0  0  0  0  0  0  0  0  0
    3.5216  -51.0305  -23.9903 C   0  0  0  0  0  0  0  0  0  0  0  0
    4.6543  -50.8003  -23.2279 O   0  0  0  0  0  0  0  0  0  0  0  0
    0.0053  -52.4649  -23.8787 C   0  0  0  0  0  0  0  0  0  0  0  0
   -0.1699  -52.7746  -22.4412 C   0  0  0  0  0  0  0  0  0  0  0  0
    0.0909  -51.9296  -21.3987 C   0  0  0  0  0  0  0  0  0  0  0  0
   -0.1416  -52.4021  -20.1472 C   0  0  0  0  0  0  0  0  0  0  0  0
    0.0936  -51.5675  -18.6162 Cl  0  0  0  0  0  0  0  0  0  0  0  0
   -0.7099  -53.9840  -20.4189 S   0  0  0  0  0  0  0  0  0  0  0  0
   -0.6406  -54.0108  -22.1127 C   0  0  0  0  0  0  0  0  0  0  0  0
   -1.0071  -55.0618  -23.1125 C   0  0  0  0  0  0  0  0  0  0  0  0
   -1.3449  -54.3815  -24.3585 N   0  0  0  0  0  0  0  0  0  0  0  0
   -0.1748  -53.6404  -24.7629 C   0  0  0  0  0  0  0  0  0  0  0  0
   -0.2637  -53.2042  -26.2142 C   0  0  0  0  0  0  0  0  0  0  0  0
    0.0813  -51.7340  -26.3990 C   0  0  0  0  0  0  0  0  0  0  0  0
    4.6527  -49.7489  -26.8247 H   0  0  0  0  0  0  0  0  0  0  0  0
    4.7445  -51.0456  -22.2658 H   0  0  0  0  0  0  0  0  0  0  0  0
   -1.6492  -55.0964  -25.0387 H   0  0  0  0  0  0  0  0  0  0  0  0
  1  2  1  0  0  0
  2  3  2  0  0  0
  3  4  1  0  0  0
  4  5  2  0  0  0
  5  6  1  0  0  0
  6  7  2  0  0  0
  7  8  1  0  0  0
  5  9  1  0  0  0
  9 10  1  0  0  0
 10 11  1  0  0  0
 11 12  2  0  0  0
 12 13  1  0  0  0
 12 14  1  0  0  0
 14 15  1  0  0  0
 15 16  1  0  0  0
 16 17  1  0  0  0
 17 18  1  0  0  0
 18 19  1  0  0  0
 19 20  1  0  0  0
  7  2  1  0  0  0
 18  9  1  0  0  0
 20  4  1  0  0  0
 15 10  2  0  0  0
  1 21  1  0  0  0
  8 22  1  0  0  0
 17 23  1  0  0  0
M  END
> <minimizedAffinity>
-8.04263

> <CNNscore>
0.3457460105

> <CNNaffinity>
5.8276929855

> <CNN_VS>
2.0149016380

> <CNNaffinity_variance>
0.0747880340

$$$$
[H]Oc1c([H])c2c(c([H])c1O[H])[C@]1([H])c3c(sc(Cl)c3[H])C([H])([H])N([H])[C@@]1([H])C([H])([H])C2([H])[H]


 23 26  0  0  0  0  0  0  0  0999 V2000
   -1.0279  -53.3021  -20.9625 O   0  0  0  0  0  0  0  0  0  0  0  0
   -0.1338  -52.2985  -20.6399 C   0  0  0  0  0  0  0  0  0  0  0  0
    0.1324  -52.0763  -19.2992 C   0  0  0  0  0  0  0  0  0  0  0  0
    1.0082  -51.0935  -18.9672 C   0  0  0  0  0  0  0  0  0  0  0  0
    1.6276  -50.3209  -19.9645 C   0  0  0  0  0  0  0  0  0  0  0  0
    1.3575  -50.5507  -21.2813 C   0  0  0  0  0  0  0  0  0  0  0  0
    0.4559  -51.5618  -21.6379 C   0  0  0  0  0  0  0  0  0  0  0  0
    0.1434  -51.8388  -22.9582 O   0  0  0  0  0  0  0  0  0  0  0  0
    2.5400  -49.3052  -19.4022 C   0  0  0  0  0  0  0  0  0  0  0  0
    3.1157  -48.3402  -20.3668 C   0  0  0  0  0  0  0  0  0  0  0  0
    2.4244  -47.6478  -21.3216 C   0  0  0  0  0  0  0  0  0  0  0  0
    3.1372  -46.8016  -22.1088 C   0  0  0  0  0  0  0  0  0  0  0  0
    2.5435  -45.7817  -23.4137 Cl  0  0  0  0  0  0  0  0  0  0  0  0
    4.7301  -46.9678  -21.5306 S   0  0  0  0  0  0  0  0  0  0  0  0
    4.4569  -48.1058  -20.3038 C   0  0  0  0  0  0  0  0  0  0  0  0
    5.3748  -48.7470  -19.3114 C   0  0  0  0  0  0  0  0  0  0  0  0
    4.5722  -49.1222  -18.1519 N   0  0  0  0  0  0  0  0  0  0  0  0
    3.5618  -50.0399  -18.6198 C   0  0  0  0  0  0  0  0  0  0  0  0
    2.9124  -50.7894  -17.4705 C   0  0  0  0  0  0  0  0  0  0  0  0
    1.3936  -50.7809  -17.5583 C   0  0  0  0  0  0  0  0  0  0  0  0
   -1.4794  -53.8628  -20.2540 H   0  0  0  0  0  0  0  0  0  0  0  0
    0.5254  -51.3533  -23.7406 H   0  0  0  0  0  0  0  0  0  0  0  0
    5.2072  -49.5185  -17.4405 H   0  0  0  0  0  0  0  0  0  0  0  0
  1  2  1  0  0  0
  2  3  2  0  0  0
  3  4  1  0  0  0
  4  5  2  0  0  0
  5  6  1  0  0  0
  6  7  2  0  0  0
  7  8  1  0  0  0
  5  9  1  0  0  0
  9 10  1  0  0  0
 10 11  1  0  0  0
 11 12  2  0  0  0
 12 13  1  0  0  0
 12 14  1  0  0  0
 14 15  1  0  0  0
 15 16  1  0  0  0
 16 17  1  0  0  0
 17 18  1  0  0  0
 18 19  1  0  0  0
 19 20  1  0  0  0
  7  2  1  0  0  0
 18  9  1  0  0  0
 20  4  1  0  0  0
 15 10  2  0  0  0
  1 21  1  0  0  0
  8 22  1  0  0  0
 17 23  1  0  0  0
M  END
> <minimizedAffinity>
-5.46143

> <CNNscore>
0.2661759853

> <CNNaffinity>
4.9581408501

> <CNN_VS>
1.3197380304

> <CNNaffinity_variance>
0.0778297558

$$$$
[H]c1c(-c2c([H])c([H])c([H])c(C([H])([H])n3nc(-c4c([H])c(F)c([H])c(F)c4[H])c([H])c([H])c3=O)c2[H])nnc(C([H])([H])[H])c1[H]


 29 32  0  0  0  0  0  0  0  0999 V2000
   -0.6244  -52.8824  -22.3428 N   0  0  0  0  0  0  0  0  0  0  0  0
   -0.3788  -52.7023  -23.6375 N   0  0  0  0  0  0  0  0  0  0  0  0
   -0.5205  -53.6572  -24.5776 C   0  0  0  0  0  0  0  0  0  0  0  0
   -0.9484  -54.9068  -24.1766 C   0  0  0  0  0  0  0  0  0  0  0  0
   -1.2143  -55.1344  -22.8387 C   0  0  0  0  0  0  0  0  0  0  0  0
   -1.0412  -54.0905  -21.9331 C   0  0  0  0  0  0  0  0  0  0  0  0
   -1.2625  -54.2311  -20.7178 O   0  0  0  0  0  0  0  0  0  0  0  0
   -0.2207  -53.3482  -25.9820 C   0  0  0  0  0  0  0  0  0  0  0  0
   -1.1314  -52.8700  -26.8810 C   0  0  0  0  0  0  0  0  0  0  0  0
   -0.7816  -52.5964  -28.2027 C   0  0  0  0  0  0  0  0  0  0  0  0
   -1.6959  -52.1257  -29.0707 F   0  0  0  0  0  0  0  0  0  0  0  0
    0.5023  -52.8000  -28.6512 C   0  0  0  0  0  0  0  0  0  0  0  0
    1.4277  -53.2822  -27.7520 C   0  0  0  0  0  0  0  0  0  0  0  0
    2.6917  -53.4837  -28.1897 F   0  0  0  0  0  0  0  0  0  0  0  0
    1.0673  -53.5482  -26.4479 C   0  0  0  0  0  0  0  0  0  0  0  0
   -0.4302  -51.7627  -21.4755 C   0  0  0  0  0  0  0  0  0  0  0  0
    2.2638  -51.1811  -18.9303 C   0  0  0  0  0  0  0  0  0  0  0  0
    3.3588  -51.2696  -19.7738 C   0  0  0  0  0  0  0  0  0  0  0  0
    3.2517  -51.5061  -21.1193 C   0  0  0  0  0  0  0  0  0  0  0  0
    2.0093  -51.6661  -21.6784 C   0  0  0  0  0  0  0  0  0  0  0  0
    0.8927  -51.5892  -20.8940 C   0  0  0  0  0  0  0  0  0  0  0  0
    1.0405  -51.3505  -19.5485 C   0  0  0  0  0  0  0  0  0  0  0  0
    3.3510  -50.3442  -13.3985 C   0  0  0  0  0  0  0  0  0  0  0  0
    3.0109  -50.5425  -14.8527 C   0  0  0  0  0  0  0  0  0  0  0  0
    1.7850  -50.1660  -15.3539 C   0  0  0  0  0  0  0  0  0  0  0  0
    1.4912  -50.3594  -16.7062 C   0  0  0  0  0  0  0  0  0  0  0  0
    2.4466  -50.9282  -17.5125 C   0  0  0  0  0  0  0  0  0  0  0  0
    3.6150  -51.2688  -16.9555 N   0  0  0  0  0  0  0  0  0  0  0  0
    3.8975  -51.0888  -15.6812 N   0  0  0  0  0  0  0  0  0  0  0  0
 23 24  1  0  0  0
 24 25  2  0  0  0
 25 26  1  0  0  0
 26 27  2  0  0  0
 27 17  1  0  0  0
 17 18  2  0  0  0
 18 19  1  0  0  0
 19 20  2  0  0  0
 20 21  1  0  0  0
 21 16  1  0  0  0
 16  1  1  0  0  0
  1  2  1  0  0  0
  2  3  2  0  0  0
  3  8  1  0  0  0
  8  9  2  0  0  0
  9 10  1  0  0  0
 10 11  1  0  0  0
 10 12  2  0  0  0
 12 13  1  0  0  0
 13 14  1  0  0  0
 13 15  2  0  0  0
  3  4  1  0  0  0
  4  5  2  0  0  0
  5  6  1  0  0  0
  6  7  2  0  0  0
 21 22  2  0  0  0
 27 28  1  0  0  0
 28 29  2  0  0  0
 29 24  1  0  0  0
 22 17  1  0  0  0
  6  1  1  0  0  0
 15  8  1  0  0  0
M  END
> <minimizedAffinity>
-9.18237

> <CNNscore>
0.6266489625

> <CNNaffinity>
6.6081709862

> <CNN_VS>
4.1410036087

> <CNNaffinity_variance>
0.0991145223

$$$$
[H]c1c(-c2c([H])c([H])c([H])c(C([H])([H])n3nc(-c4c([H])c(F)c([H])c(F)c4[H])c([H])c([H])c3=O)c2[H])nnc(C([H])([H])[H])c1[H]


 29 32  0  0  0  0  0  0  0  0999 V2000
   -0.1507  -53.8065  -21.7305 N   0  0  0  0  0  0  0  0  0  0  0  0
    0.8722  -53.1073  -22.2140 N   0  0  0  0  0  0  0  0  0  0  0  0
    1.1101  -52.9183  -23.5268 C   0  0  0  0  0  0  0  0  0  0  0  0
    0.2383  -53.4853  -24.4345 C   0  0  0  0  0  0  0  0  0  0  0  0
   -0.8379  -54.2201  -23.9715 C   0  0  0  0  0  0  0  0  0  0  0  0
   -1.0094  -54.3658  -22.5970 C   0  0  0  0  0  0  0  0  0  0  0  0
   -1.9557  -55.0143  -22.1178 O   0  0  0  0  0  0  0  0  0  0  0  0
    2.2725  -52.1265  -23.9507 C   0  0  0  0  0  0  0  0  0  0  0  0
    3.5363  -52.6241  -24.0976 C   0  0  0  0  0  0  0  0  0  0  0  0
    4.5984  -51.8174  -24.5042 C   0  0  0  0  0  0  0  0  0  0  0  0
    5.8351  -52.3297  -24.6421 F   0  0  0  0  0  0  0  0  0  0  0  0
    4.4095  -50.4822  -24.7735 C   0  0  0  0  0  0  0  0  0  0  0  0
    3.1386  -49.9712  -24.6281 C   0  0  0  0  0  0  0  0  0  0  0  0
    2.9491  -48.6581  -24.8923 F   0  0  0  0  0  0  0  0  0  0  0  0
    2.0979  -50.7811  -24.2253 C   0  0  0  0  0  0  0  0  0  0  0  0
   -0.2644  -53.9064  -20.3090 C   0  0  0  0  0  0  0  0  0  0  0  0
    0.8825  -50.4533  -19.3957 C   0  0  0  0  0  0  0  0  0  0  0  0
    0.3692  -50.4052  -18.1101 C   0  0  0  0  0  0  0  0  0  0  0  0
   -0.3237  -51.4409  -17.5401 C   0  0  0  0  0  0  0  0  0  0  0  0
   -0.5303  -52.5902  -18.2600 C   0  0  0  0  0  0  0  0  0  0  0  0
   -0.0465  -52.6939  -19.5340 C   0  0  0  0  0  0  0  0  0  0  0  0
    0.6437  -51.6338  -20.0715 C   0  0  0  0  0  0  0  0  0  0  0  0
    3.8909  -45.9492  -21.1692 C   0  0  0  0  0  0  0  0  0  0  0  0
    3.0743  -47.1451  -20.7541 C   0  0  0  0  0  0  0  0  0  0  0  0
    2.2655  -47.8011  -21.6548 C   0  0  0  0  0  0  0  0  0  0  0  0
    1.5167  -48.9084  -21.2477 C   0  0  0  0  0  0  0  0  0  0  0  0
    1.6080  -49.3199  -19.9404 C   0  0  0  0  0  0  0  0  0  0  0  0
    2.4145  -48.6335  -19.1220 N   0  0  0  0  0  0  0  0  0  0  0  0
    3.1227  -47.5889  -19.5004 N   0  0  0  0  0  0  0  0  0  0  0  0
 23 24  1  0  0  0
 24 25  2  0  0  0
 25 26  1  0  0  0
 26 27  2  0  0  0
 27 17  1  0  0  0
 17 18  2  0  0  0
 18 19  1  0  0  0
 19 20  2  0  0  0
 20 21  1  0  0  0
 21 16  1  0  0  0
 16  1  1  0  0  0
  1  2  1  0  0  0
  2  3  2  0  0  0
  3  8  1  0  0  0
  8  9  2  0  0  0
  9 10  1  0  0  0
 10 11  1  0  0  0
 10 12  2  0  0  0
 12 13  1  0  0  0
 13 14  1  0  0  0
 13 15  2  0  0  0
  3  4  1  0  0  0
  4  5  2  0  0  0
  5  6  1  0  0  0
  6  7  2  0  0  0
 21 22  2  0  0  0
 27 28  1  0  0  0
 28 29  2  0  0  0
 29 24  1  0  0  0
 22 17  1  0  0  0
  6  1  1  0  0  0
 15  8  1  0  0  0
M  END
> <minimizedAffinity>
-8.43892

> <CNNscore>
0.5997103453

> <CNNaffinity>
6.7193613052

> <CNN_VS>
4.0296707153

> <CNNaffinity_variance>
0.2090540379

$$$$
[H]c1c(-c2c([H])c([H])c([H])c(C([H])([H])n3nc(-c4c([H])c(F)c([H])c(F)c4[H])c([H])c([H])c3=O)c2[H])nnc(C([H])([H])[H])c1[H]


 29 32  0  0  0  0  0  0  0  0999 V2000
   -0.7489  -52.9353  -22.2203 N   0  0  0  0  0  0  0  0  0  0  0  0
   -0.3611  -52.7450  -23.4782 N   0  0  0  0  0  0  0  0  0  0  0  0
   -0.4537  -53.6735  -24.4503 C   0  0  0  0  0  0  0  0  0  0  0  0
   -0.9853  -54.9053  -24.1254 C   0  0  0  0  0  0  0  0  0  0  0  0
   -1.4002  -55.1426  -22.8277 C   0  0  0  0  0  0  0  0  0  0  0  0
   -1.2682  -54.1264  -21.8845 C   0  0  0  0  0  0  0  0  0  0  0  0
   -1.6216  -54.2771  -20.7021 O   0  0  0  0  0  0  0  0  0  0  0  0
    0.0061  -53.3555  -25.8088 C   0  0  0  0  0  0  0  0  0  0  0  0
    1.3148  -53.3450  -26.2005 C   0  0  0  0  0  0  0  0  0  0  0  0
    1.6854  -53.0339  -27.5082 C   0  0  0  0  0  0  0  0  0  0  0  0
    2.9812  -53.0300  -27.8713 F   0  0  0  0  0  0  0  0  0  0  0  0
    0.7392  -52.7243  -28.4567 C   0  0  0  0  0  0  0  0  0  0  0  0
   -0.5832  -52.7322  -28.0711 C   0  0  0  0  0  0  0  0  0  0  0  0
   -1.5168  -52.4281  -29.0017 F   0  0  0  0  0  0  0  0  0  0  0  0
   -0.9348  -53.0419  -26.7743 C   0  0  0  0  0  0  0  0  0  0  0  0
   -0.5880  -51.8439  -21.3112 C   0  0  0  0  0  0  0  0  0  0  0  0
    2.5576  -49.8211  -21.6070 C   0  0  0  0  0  0  0  0  0  0  0  0
    3.2985  -50.4581  -20.6251 C   0  0  0  0  0  0  0  0  0  0  0  0
    2.8179  -51.5061  -19.8846 C   0  0  0  0  0  0  0  0  0  0  0  0
    1.5440  -51.9623  -20.1103 C   0  0  0  0  0  0  0  0  0  0  0  0
    0.7669  -51.3716  -21.0669 C   0  0  0  0  0  0  0  0  0  0  0  0
    1.2839  -50.3229  -21.7894 C   0  0  0  0  0  0  0  0  0  0  0  0
    5.0733  -45.7354  -24.6827 C   0  0  0  0  0  0  0  0  0  0  0  0
    4.3692  -46.7763  -23.8521 C   0  0  0  0  0  0  0  0  0  0  0  0
    3.2509  -46.4598  -23.1139 C   0  0  0  0  0  0  0  0  0  0  0  0
    2.6137  -47.4415  -22.3505 C   0  0  0  0  0  0  0  0  0  0  0  0
    3.1267  -48.7156  -22.3562 C   0  0  0  0  0  0  0  0  0  0  0  0
    4.2164  -48.9493  -23.0975 N   0  0  0  0  0  0  0  0  0  0  0  0
    4.8212  -48.0276  -23.8190 N   0  0  0  0  0  0  0  0  0  0  0  0
 23 24  1  0  0  0
 24 25  2  0  0  0
 25 26  1  0  0  0
 26 27  2  0  0  0
 27 17  1  0  0  0
 17 18  2  0  0  0
 18 19  1  0  0  0
 19 20  2  0  0  0
 20 21  1  0  0  0
 21 16  1  0  0  0
 16  1  1  0  0  0
  1  2  1  0  0  0
  2  3  2  0  0  0
  3  8  1  0  0  0
  8  9  2  0  0  0
  9 10  1  0  0  0
 10 11  1  0  0  0
 10 12  2  0  0  0
 12 13  1  0  0  0
 13 14  1  0  0  0
 13 15  2  0  0  0
  3  4  1  0  0  0
  4  5  2  0  0  0
  5  6  1  0  0  0
  6  7  2  0  0  0
 21 22  2  0  0  0
 27 28  1  0  0  0
 28 29  2  0  0  0
 29 24  1  0  0  0
 22 17  1  0  0  0
  6  1  1  0  0  0
 15  8  1  0  0  0
M  END
> <minimizedAffinity>
-8.73590

> <CNNscore>
0.5831551552

> <CNNaffinity>
6.9576606750

> <CNN_VS>
4.0573954582

> <CNNaffinity_variance>
0.1992958635

$$$$
[H]c1c(-c2c([H])c([H])c([H])c(C([H])([H])n3nc(-c4c([H])c(F)c([H])c(F)c4[H])c([H])c([H])c3=O)c2[H])nnc(C([H])([H])[H])c1[H]


 29 32  0  0  0  0  0  0  0  0999 V2000
   -0.0949  -53.6573  -21.7833 N   0  0  0  0  0  0  0  0  0  0  0  0
    0.7913  -52.8335  -22.3352 N   0  0  0  0  0  0  0  0  0  0  0  0
    0.9373  -52.6535  -23.6626 C   0  0  0  0  0  0  0  0  0  0  0  0
    0.1159  -53.3687  -24.5107 C   0  0  0  0  0  0  0  0  0  0  0  0
   -0.8189  -54.2362  -23.9756 C   0  0  0  0  0  0  0  0  0  0  0  0
   -0.9027  -54.3618  -22.5910 C   0  0  0  0  0  0  0  0  0  0  0  0
   -1.7209  -55.1246  -22.0486 O   0  0  0  0  0  0  0  0  0  0  0  0
    1.9508  -51.7159  -24.1644 C   0  0  0  0  0  0  0  0  0  0  0  0
    2.1115  -51.3802  -25.4789 C   0  0  0  0  0  0  0  0  0  0  0  0
    3.0952  -50.4817  -25.8902 C   0  0  0  0  0  0  0  0  0  0  0  0
    3.2348  -50.1658  -27.1909 F   0  0  0  0  0  0  0  0  0  0  0  0
    3.9446  -49.8975  -24.9802 C   0  0  0  0  0  0  0  0  0  0  0  0
    3.7903  -50.2300  -23.6524 C   0  0  0  0  0  0  0  0  0  0  0  0
    4.6242  -49.6572  -22.7543 F   0  0  0  0  0  0  0  0  0  0  0  0
    2.8130  -51.1201  -23.2602 C   0  0  0  0  0  0  0  0  0  0  0  0
   -0.1260  -53.7278  -20.3558 C   0  0  0  0  0  0  0  0  0  0  0  0
    1.0708  -50.2615  -19.5648 C   0  0  0  0  0  0  0  0  0  0  0  0
    0.5856  -50.1725  -18.2705 C   0  0  0  0  0  0  0  0  0  0  0  0
   -0.1041  -51.1852  -17.6570 C   0  0  0  0  0  0  0  0  0  0  0  0
   -0.3363  -52.3522  -18.3397 C   0  0  0  0  0  0  0  0  0  0  0  0
    0.1192  -52.4962  -19.6202 C   0  0  0  0  0  0  0  0  0  0  0  0
    0.8071  -51.4582  -20.2019 C   0  0  0  0  0  0  0  0  0  0  0  0
    3.6430  -45.9040  -22.1875 C   0  0  0  0  0  0  0  0  0  0  0  0
    3.0033  -47.0529  -21.4526 C   0  0  0  0  0  0  0  0  0  0  0  0
    3.5276  -47.5192  -20.2679 C   0  0  0  0  0  0  0  0  0  0  0  0
    2.9177  -48.5863  -19.6032 C   0  0  0  0  0  0  0  0  0  0  0  0
    1.7945  -49.1508  -20.1566 C   0  0  0  0  0  0  0  0  0  0  0  0
    1.3421  -48.6449  -21.3102 N   0  0  0  0  0  0  0  0  0  0  0  0
    1.9131  -47.6391  -21.9413 N   0  0  0  0  0  0  0  0  0  0  0  0
 23 24  1  0  0  0
 24 25  2  0  0  0
 25 26  1  0  0  0
 26 27  2  0  0  0
 27 17  1  0  0  0
 17 18  2  0  0  0
 18 19  1  0  0  0
 19 20  2  0  0  0
 20 21  1  0  0  0
 21 16  1  0  0  0
 16  1  1  0  0  0
  1  2  1  0  0  0
  2  3  2  0  0  0
  3  8  1  0  0  0
  8  9  2  0  0  0
  9 10  1  0  0  0
 10 11  1  0  0  0
 10 12  2  0  0  0
 12 13  1  0  0  0
 13 14  1  0  0  0
 13 15  2  0  0  0
  3  4  1  0  0  0
  4  5  2  0  0  0
  5  6  1  0  0  0
  6  7  2  0  0  0
 21 22  2  0  0  0
 27 28  1  0  0  0
 28 29  2  0  0  0
 29 24  1  0  0  0
 22 17  1  0  0  0
  6  1  1  0  0  0
 15  8  1  0  0  0
M  END
> <minimizedAffinity>
-7.85910

> <CNNscore>
0.5717327595

> <CNNaffinity>
6.7091665268

> <CNN_VS>
3.8358502388

> <CNNaffinity_variance>
0.2524319291

$$$$
[H]c1c(-c2c([H])c([H])c([H])c(C([H])([H])n3nc(-c4c([H])c(F)c([H])c(F)c4[H])c([H])c([H])c3=O)c2[H])nnc(C([H])([H])[H])c1[H]


 29 32  0  0  0  0  0  0  0  0999 V2000
   -0.7973  -52.9346  -22.2597 N   0  0  0  0  0  0  0  0  0  0  0  0
   -0.4375  -52.7318  -23.5239 N   0  0  0  0  0  0  0  0  0  0  0  0
   -0.4943  -53.6698  -24.4896 C   0  0  0  0  0  0  0  0  0  0  0  0
   -0.9553  -54.9260  -24.1506 C   0  0  0  0  0  0  0  0  0  0  0  0
   -1.3390  -55.1770  -22.8458 C   0  0  0  0  0  0  0  0  0  0  0  0
   -1.2480  -54.1494  -21.9101 C   0  0  0  0  0  0  0  0  0  0  0  0
   -1.5765  -54.3113  -20.7220 O   0  0  0  0  0  0  0  0  0  0  0  0
   -0.0709  -53.3362  -25.8561 C   0  0  0  0  0  0  0  0  0  0  0  0
   -0.9228  -53.0060  -26.8718 C   0  0  0  0  0  0  0  0  0  0  0  0
   -0.4554  -52.6993  -28.1491 C   0  0  0  0  0  0  0  0  0  0  0  0
   -1.3136  -52.3767  -29.1342 F   0  0  0  0  0  0  0  0  0  0  0  0
    0.8898  -52.7186  -28.4336 C   0  0  0  0  0  0  0  0  0  0  0  0
    1.7566  -53.0505  -27.4158 C   0  0  0  0  0  0  0  0  0  0  0  0
    3.0808  -53.0705  -27.6920 F   0  0  0  0  0  0  0  0  0  0  0  0
    1.2800  -53.3515  -26.1574 C   0  0  0  0  0  0  0  0  0  0  0  0
   -0.6818  -51.8306  -21.3588 C   0  0  0  0  0  0  0  0  0  0  0  0
    1.9857  -49.3164  -20.5608 C   0  0  0  0  0  0  0  0  0  0  0  0
    2.6269  -49.3081  -21.7886 C   0  0  0  0  0  0  0  0  0  0  0  0
    2.2263  -50.0782  -22.8489 C   0  0  0  0  0  0  0  0  0  0  0  0
    1.1402  -50.9044  -22.7092 C   0  0  0  0  0  0  0  0  0  0  0  0
    0.4686  -50.9538  -21.5199 C   0  0  0  0  0  0  0  0  0  0  0  0
    0.9003  -50.1665  -20.4793 C   0  0  0  0  0  0  0  0  0  0  0  0
    3.9421  -45.7347  -16.5827 C   0  0  0  0  0  0  0  0  0  0  0  0
    3.4133  -46.7198  -17.5923 C   0  0  0  0  0  0  0  0  0  0  0  0
    2.9338  -47.9499  -17.2017 C   0  0  0  0  0  0  0  0  0  0  0  0
    2.4481  -48.8481  -18.1555 C   0  0  0  0  0  0  0  0  0  0  0  0
    2.4615  -48.4754  -19.4774 C   0  0  0  0  0  0  0  0  0  0  0  0
    2.9424  -47.2641  -19.7823 N   0  0  0  0  0  0  0  0  0  0  0  0
    3.4017  -46.4133  -18.8873 N   0  0  0  0  0  0  0  0  0  0  0  0
 23 24  1  0  0  0
 24 25  2  0  0  0
 25 26  1  0  0  0
 26 27  2  0  0  0
 27 17  1  0  0  0
 17 18  2  0  0  0
 18 19  1  0  0  0
 19 20  2  0  0  0
 20 21  1  0  0  0
 21 16  1  0  0  0
 16  1  1  0  0  0
  1  2  1  0  0  0
  2  3  2  0  0  0
  3  8  1  0  0  0
  8  9  2  0  0  0
  9 10  1  0  0  0
 10 11  1  0  0  0
 10 12  2  0  0  0
 12 13  1  0  0  0
 13 14  1  0  0  0
 13 15  2  0  0  0
  3  4  1  0  0  0
  4  5  2  0  0  0
  5  6  1  0  0  0
  6  7  2  0  0  0
 21 22  2  0  0  0
 27 28  1  0  0  0
 28 29  2  0  0  0
 29 24  1  0  0  0
 22 17  1  0  0  0
  6  1  1  0  0  0
 15  8  1  0  0  0
M  END
> <minimizedAffinity>
-8.75753

> <CNNscore>
0.5269868970

> <CNNaffinity>
6.5841774940

> <CNN_VS>
3.4697751999

> <CNNaffinity_variance>
0.2874856889

$$$$
[H]c1c(-c2c([H])c([H])c([H])c(C([H])([H])n3nc(-c4c([H])c(F)c([H])c(F)c4[H])c([H])c([H])c3=O)c2[H])nnc(C([H])([H])[H])c1[H]


 29 32  0  0  0  0  0  0  0  0999 V2000
    0.0810  -53.7089  -21.9868 N   0  0  0  0  0  0  0  0  0  0  0  0
    0.8307  -52.7049  -22.4326 N   0  0  0  0  0  0  0  0  0  0  0  0
    0.7765  -52.2151  -23.6867 C   0  0  0  0  0  0  0  0  0  0  0  0
   -0.1137  -52.7891  -24.5718 C   0  0  0  0  0  0  0  0  0  0  0  0
   -0.9112  -53.8360  -24.1467 C   0  0  0  0  0  0  0  0  0  0  0  0
   -0.7906  -54.2805  -22.8323 C   0  0  0  0  0  0  0  0  0  0  0  0
   -1.4779  -55.2172  -22.3895 O   0  0  0  0  0  0  0  0  0  0  0  0
    1.6524  -51.1008  -24.0730 C   0  0  0  0  0  0  0  0  0  0  0  0
    2.0564  -50.8410  -25.3519 C   0  0  0  0  0  0  0  0  0  0  0  0
    2.8902  -49.7646  -25.6521 C   0  0  0  0  0  0  0  0  0  0  0  0
    3.2753  -49.5281  -26.9197 F   0  0  0  0  0  0  0  0  0  0  0  0
    3.3387  -48.9202  -24.6637 C   0  0  0  0  0  0  0  0  0  0  0  0
    2.9367  -49.1742  -23.3709 C   0  0  0  0  0  0  0  0  0  0  0  0
    3.3759  -48.3455  -22.3960 F   0  0  0  0  0  0  0  0  0  0  0  0
    2.1117  -50.2425  -23.0890 C   0  0  0  0  0  0  0  0  0  0  0  0
    0.2564  -54.1051  -20.6245 C   0  0  0  0  0  0  0  0  0  0  0  0
   -0.8122  -52.0753  -17.6561 C   0  0  0  0  0  0  0  0  0  0  0  0
    0.1798  -51.1099  -17.7059 C   0  0  0  0  0  0  0  0  0  0  0  0
    1.1660  -51.0966  -18.6572 C   0  0  0  0  0  0  0  0  0  0  0  0
    1.1907  -52.0776  -19.6158 C   0  0  0  0  0  0  0  0  0  0  0  0
    0.2369  -53.0564  -19.6155 C   0  0  0  0  0  0  0  0  0  0  0  0
   -0.7364  -53.0361  -18.6452 C   0  0  0  0  0  0  0  0  0  0  0  0
   -5.0202  -52.1615  -13.8132 C   0  0  0  0  0  0  0  0  0  0  0  0
   -3.8791  -52.1017  -14.7949 C   0  0  0  0  0  0  0  0  0  0  0  0
   -2.7715  -51.3211  -14.5508 C   0  0  0  0  0  0  0  0  0  0  0  0
   -1.7247  -51.2807  -15.4756 C   0  0  0  0  0  0  0  0  0  0  0  0
   -1.8290  -52.0317  -16.6208 C   0  0  0  0  0  0  0  0  0  0  0  0
   -2.9350  -52.7663  -16.7902 N   0  0  0  0  0  0  0  0  0  0  0  0
   -3.9249  -52.8081  -15.9218 N   0  0  0  0  0  0  0  0  0  0  0  0
 23 24  1  0  0  0
 24 25  2  0  0  0
 25 26  1  0  0  0
 26 27  2  0  0  0
 27 17  1  0  0  0
 17 18  2  0  0  0
 18 19  1  0  0  0
 19 20  2  0  0  0
 20 21  1  0  0  0
 21 16  1  0  0  0
 16  1  1  0  0  0
  1  2  1  0  0  0
  2  3  2  0  0  0
  3  8  1  0  0  0
  8  9  2  0  0  0
  9 10  1  0  0  0
 10 11  1  0  0  0
 10 12  2  0  0  0
 12 13  1  0  0  0
 13 14  1  0  0  0
 13 15  2  0  0  0
  3  4  1  0  0  0
  4  5  2  0  0  0
  5  6  1  0  0  0
  6  7  2  0  0  0
 21 22  2  0  0  0
 27 28  1  0  0  0
 28 29  2  0  0  0
 29 24  1  0  0  0
 22 17  1  0  0  0
  6  1  1  0  0  0
 15  8  1  0  0  0
M  END
> <minimizedAffinity>
-8.25447

> <CNNscore>
0.5148839355

> <CNNaffinity>
6.4038214684

> <CNN_VS>
3.2972247601

> <CNNaffinity_variance>
0.2704164982

$$$$
[H]c1c(-c2c([H])c([H])c([H])c(C([H])([H])n3nc(-c4c([H])c(F)c([H])c(F)c4[H])c([H])c([H])c3=O)c2[H])nnc(C([H])([H])[H])c1[H]


 29 32  0  0  0  0  0  0  0  0999 V2000
   -0.2647  -53.1264  -22.1228 N   0  0  0  0  0  0  0  0  0  0  0  0
    0.0767  -52.9254  -23.3924 N   0  0  0  0  0  0  0  0  0  0  0  0
   -0.2746  -53.7349  -24.4107 C   0  0  0  0  0  0  0  0  0  0  0  0
   -1.0389  -54.8479  -24.1236 C   0  0  0  0  0  0  0  0  0  0  0  0
   -1.4144  -55.0922  -22.8152 C   0  0  0  0  0  0  0  0  0  0  0  0
   -1.0076  -54.2032  -21.8232 C   0  0  0  0  0  0  0  0  0  0  0  0
   -1.3115  -54.3671  -20.6288 O   0  0  0  0  0  0  0  0  0  0  0  0
    0.1583  -53.4168  -25.7780 C   0  0  0  0  0  0  0  0  0  0  0  0
   -0.6849  -53.2717  -26.8430 C   0  0  0  0  0  0  0  0  0  0  0  0
   -0.2088  -52.9687  -28.1180 C   0  0  0  0  0  0  0  0  0  0  0  0
   -1.0585  -52.8303  -29.1523 F   0  0  0  0  0  0  0  0  0  0  0  0
    1.1366  -52.8043  -28.3500 C   0  0  0  0  0  0  0  0  0  0  0  0
    1.9947  -52.9488  -27.2822 C   0  0  0  0  0  0  0  0  0  0  0  0
    3.3190  -52.7878  -27.5067 F   0  0  0  0  0  0  0  0  0  0  0  0
    1.5095  -53.2485  -26.0268 C   0  0  0  0  0  0  0  0  0  0  0  0
    0.1844  -52.1677  -21.1622 C   0  0  0  0  0  0  0  0  0  0  0  0
    2.8428  -50.1419  -22.8659 C   0  0  0  0  0  0  0  0  0  0  0  0
    3.8381  -50.2746  -21.9119 C   0  0  0  0  0  0  0  0  0  0  0  0
    3.6766  -50.9899  -20.7542 C   0  0  0  0  0  0  0  0  0  0  0  0
    2.4792  -51.6125  -20.5086 C   0  0  0  0  0  0  0  0  0  0  0  0
    1.4609  -51.5157  -21.4149 C   0  0  0  0  0  0  0  0  0  0  0  0
    1.6607  -50.7895  -22.5646 C   0  0  0  0  0  0  0  0  0  0  0  0
    3.8066  -46.7825  -27.3679 C   0  0  0  0  0  0  0  0  0  0  0  0
    3.5472  -47.7156  -26.2141 C   0  0  0  0  0  0  0  0  0  0  0  0
    3.3332  -49.0599  -26.4211 C   0  0  0  0  0  0  0  0  0  0  0  0
    3.0944  -49.9071  -25.3358 C   0  0  0  0  0  0  0  0  0  0  0  0
    3.0790  -49.3693  -24.0721 C   0  0  0  0  0  0  0  0  0  0  0  0
    3.2951  -48.0542  -23.9478 N   0  0  0  0  0  0  0  0  0  0  0  0
    3.5207  -47.2508  -24.9673 N   0  0  0  0  0  0  0  0  0  0  0  0
 23 24  1  0  0  0
 24 25  2  0  0  0
 25 26  1  0  0  0
 26 27  2  0  0  0
 27 17  1  0  0  0
 17 18  2  0  0  0
 18 19  1  0  0  0
 19 20  2  0  0  0
 20 21  1  0  0  0
 21 16  1  0  0  0
 16  1  1  0  0  0
  1  2  1  0  0  0
  2  3  2  0  0  0
  3  8  1  0  0  0
  8  9  2  0  0  0
  9 10  1  0  0  0
 10 11  1  0  0  0
 10 12  2  0  0  0
 12 13  1  0  0  0
 13 14  1  0  0  0
 13 15  2  0  0  0
  3  4  1  0  0  0
  4  5  2  0  0  0
  5  6  1  0  0  0
  6  7  2  0  0  0
 21 22  2  0  0  0
 27 28  1  0  0  0
 28 29  2  0  0  0
 29 24  1  0  0  0
 22 17  1  0  0  0
  6  1  1  0  0  0
 15  8  1  0  0  0
M  END
> <minimizedAffinity>
-8.69587

> <CNNscore>
0.5045849085

> <CNNaffinity>
6.8227081299

> <CNN_VS>
3.4426355362

> <CNNaffinity_variance>
0.3447689414

$$$$
[H]c1c(-c2c([H])c([H])c([H])c(C([H])([H])n3nc(-c4c([H])c(F)c([H])c(F)c4[H])c([H])c([H])c3=O)c2[H])nnc(C([H])([H])[H])c1[H]


 29 32  0  0  0  0  0  0  0  0999 V2000
    0.3546  -52.8306  -19.7099 N   0  0  0  0  0  0  0  0  0  0  0  0
    0.7915  -51.9331  -18.8309 N   0  0  0  0  0  0  0  0  0  0  0  0
    0.0892  -51.5147  -17.7597 C   0  0  0  0  0  0  0  0  0  0  0  0
   -1.1672  -52.0490  -17.5559 C   0  0  0  0  0  0  0  0  0  0  0  0
   -1.6576  -52.9852  -18.4479 C   0  0  0  0  0  0  0  0  0  0  0  0
   -0.8646  -53.3616  -19.5293 C   0  0  0  0  0  0  0  0  0  0  0  0
   -1.2481  -54.1972  -20.3662 O   0  0  0  0  0  0  0  0  0  0  0  0
    0.6698  -50.5168  -16.8514 C   0  0  0  0  0  0  0  0  0  0  0  0
    1.9365  -50.5768  -16.3432 C   0  0  0  0  0  0  0  0  0  0  0  0
    2.4280  -49.5949  -15.4839 C   0  0  0  0  0  0  0  0  0  0  0  0
    3.6795  -49.6749  -14.9956 F   0  0  0  0  0  0  0  0  0  0  0  0
    1.6490  -48.5235  -15.1150 C   0  0  0  0  0  0  0  0  0  0  0  0
    0.3702  -48.4544  -15.6223 C   0  0  0  0  0  0  0  0  0  0  0  0
   -0.3990  -47.4017  -15.2615 F   0  0  0  0  0  0  0  0  0  0  0  0
   -0.1024  -49.4328  -16.4712 C   0  0  0  0  0  0  0  0  0  0  0  0
    1.2273  -53.1711  -20.7898 C   0  0  0  0  0  0  0  0  0  0  0  0
    0.9271  -51.6660  -24.2129 C   0  0  0  0  0  0  0  0  0  0  0  0
    1.5313  -50.4477  -23.9498 C   0  0  0  0  0  0  0  0  0  0  0  0
    2.0258  -50.1064  -22.7182 C   0  0  0  0  0  0  0  0  0  0  0  0
    1.9281  -50.9999  -21.6818 C   0  0  0  0  0  0  0  0  0  0  0  0
    1.3412  -52.2175  -21.8834 C   0  0  0  0  0  0  0  0  0  0  0  0
    0.8570  -52.5237  -23.1328 C   0  0  0  0  0  0  0  0  0  0  0  0
   -0.6690  -52.8269  -29.5596 C   0  0  0  0  0  0  0  0  0  0  0  0
   -0.3028  -52.5226  -28.1304 C   0  0  0  0  0  0  0  0  0  0  0  0
   -1.2678  -52.4371  -27.1520 C   0  0  0  0  0  0  0  0  0  0  0  0
   -0.9053  -52.1538  -25.8326 C   0  0  0  0  0  0  0  0  0  0  0  0
    0.4237  -51.9651  -25.5413 C   0  0  0  0  0  0  0  0  0  0  0  0
    1.3052  -52.0636  -26.5436 N   0  0  0  0  0  0  0  0  0  0  0  0
    0.9691  -52.3304  -27.7893 N   0  0  0  0  0  0  0  0  0  0  0  0
 23 24  1  0  0  0
 24 25  2  0  0  0
 25 26  1  0  0  0
 26 27  2  0  0  0
 27 17  1  0  0  0
 17 18  2  0  0  0
 18 19  1  0  0  0
 19 20  2  0  0  0
 20 21  1  0  0  0
 21 16  1  0  0  0
 16  1  1  0  0  0
  1  2  1  0  0  0
  2  3  2  0  0  0
  3  8  1  0  0  0
  8  9  2  0  0  0
  9 10  1  0  0  0
 10 11  1  0  0  0
 10 12  2  0  0  0
 12 13  1  0  0  0
 13 14  1  0  0  0
 13 15  2  0  0  0
  3  4  1  0  0  0
  4  5  2  0  0  0
  5  6  1  0  0  0
  6  7  2  0  0  0
 21 22  2  0  0  0
 27 28  1  0  0  0
 28 29  2  0  0  0
 29 24  1  0  0  0
 22 17  1  0  0  0
  6  1  1  0  0  0
 15  8  1  0  0  0
M  END
> <minimizedAffinity>
-7.67302

> <CNNscore>
0.4682863057

> <CNNaffinity>
6.5439596176

> <CNN_VS>
3.0644466877

> <CNNaffinity_variance>
0.3911282122

$$$$
[H]c1c(-c2c([H])c([H])c([H])c(C([H])([H])n3nc(-c4c([H])c(F)c([H])c(F)c4[H])c([H])c([H])c3=O)c2[H])nnc(C([H])([H])[H])c1[H]


 29 32  0  0  0  0  0  0  0  0999 V2000
   -0.3707  -53.0036  -21.7144 N   0  0  0  0  0  0  0  0  0  0  0  0
    0.3550  -52.4914  -22.7042 N   0  0  0  0  0  0  0  0  0  0  0  0
    0.4165  -53.0082  -23.9472 C   0  0  0  0  0  0  0  0  0  0  0  0
   -0.3199  -54.1441  -24.2170 C   0  0  0  0  0  0  0  0  0  0  0  0
   -1.0875  -54.7074  -23.2139 C   0  0  0  0  0  0  0  0  0  0  0  0
   -1.0936  -54.1081  -21.9567 C   0  0  0  0  0  0  0  0  0  0  0  0
   -1.7618  -54.5659  -21.0135 O   0  0  0  0  0  0  0  0  0  0  0  0
    1.2524  -52.3595  -24.9662 C   0  0  0  0  0  0  0  0  0  0  0  0
    1.6067  -51.0402  -24.9518 C   0  0  0  0  0  0  0  0  0  0  0  0
    2.4045  -50.4852  -25.9516 C   0  0  0  0  0  0  0  0  0  0  0  0
    2.7409  -49.1827  -25.9165 F   0  0  0  0  0  0  0  0  0  0  0  0
    2.8660  -51.2523  -26.9955 C   0  0  0  0  0  0  0  0  0  0  0  0
    2.5139  -52.5838  -27.0187 C   0  0  0  0  0  0  0  0  0  0  0  0
    2.9661  -53.3414  -28.0441 F   0  0  0  0  0  0  0  0  0  0  0  0
    1.7243  -53.1189  -26.0229 C   0  0  0  0  0  0  0  0  0  0  0  0
   -0.3315  -52.3295  -20.4544 C   0  0  0  0  0  0  0  0  0  0  0  0
    2.3213  -50.9972  -18.1606 C   0  0  0  0  0  0  0  0  0  0  0  0
    3.3974  -51.0814  -19.0286 C   0  0  0  0  0  0  0  0  0  0  0  0
    3.2903  -51.5473  -20.3128 C   0  0  0  0  0  0  0  0  0  0  0  0
    2.0673  -51.9551  -20.7817 C   0  0  0  0  0  0  0  0  0  0  0  0
    0.9700  -51.8945  -19.9692 C   0  0  0  0  0  0  0  0  0  0  0  0
    1.1171  -51.4213  -18.6872 C   0  0  0  0  0  0  0  0  0  0  0  0
    2.7224  -48.7753  -12.9275 C   0  0  0  0  0  0  0  0  0  0  0  0
    2.6616  -49.3968  -14.2985 C   0  0  0  0  0  0  0  0  0  0  0  0
    3.5536  -50.3755  -14.6756 C   0  0  0  0  0  0  0  0  0  0  0  0
    3.4787  -50.9380  -15.9525 C   0  0  0  0  0  0  0  0  0  0  0  0
    2.5030  -50.4938  -16.8111 C   0  0  0  0  0  0  0  0  0  0  0  0
    1.6715  -49.5398  -16.3753 N   0  0  0  0  0  0  0  0  0  0  0  0
    1.7375  -49.0059  -15.1727 N   0  0  0  0  0  0  0  0  0  0  0  0
 23 24  1  0  0  0
 24 25  2  0  0  0
 25 26  1  0  0  0
 26 27  2  0  0  0
 27 17  1  0  0  0
 17 18  2  0  0  0
 18 19  1  0  0  0
 19 20  2  0  0  0
 20 21  1  0  0  0
 21 16  1  0  0  0
 16  1  1  0  0  0
  1  2  1  0  0  0
  2  3  2  0  0  0
  3  8  1  0  0  0
  8  9  2  0  0  0
  9 10  1  0  0  0
 10 11  1  0  0  0
 10 12  2  0  0  0
 12 13  1  0  0  0
 13 14  1  0  0  0
 13 15  2  0  0  0
  3  4  1  0  0  0
  4  5  2  0  0  0
  5  6  1  0  0  0
  6  7  2  0  0  0
 21 22  2  0  0  0
 27 28  1  0  0  0
 28 29  2  0  0  0
 29 24  1  0  0  0
 22 17  1  0  0  0
  6  1  1  0  0  0
 15  8  1  0  0  0
M  END
> <minimizedAffinity>
-7.92058

> <CNNscore>
0.4681815803

> <CNNaffinity>
6.3721818924

> <CNN_VS>
2.9833381176

> <CNNaffinity_variance>
0.2314118147

$$$$
[H]c1c([H])c([H])c(-c2c([H])c([H])c(C([H])([H])Sc3nnc(-c4c([H])c([H])c5c(c4[H])O[C@@]([H])(C([H])([H])OC([H])([H])[H])C([H])([H])O5)o3)c([H])c2[H])c(C#N)c1[H]


 34 38  0  0  0  0  0  0  0  0999 V2000
   -0.4840  -53.8464  -22.1037 C   0  0  0  0  0  0  0  0  0  0  0  0
   -1.3598  -54.8462  -22.1930 N   0  0  0  0  0  0  0  0  0  0  0  0
   -1.4023  -55.2445  -23.4458 N   0  0  0  0  0  0  0  0  0  0  0  0
   -0.5525  -54.4976  -24.1553 C   0  0  0  0  0  0  0  0  0  0  0  0
   -0.0084  -53.6472  -23.2807 O   0  0  0  0  0  0  0  0  0  0  0  0
   -1.3577  -51.5175  -16.5121 C   0  0  0  0  0  0  0  0  0  0  0  0
    0.1292  -51.5547  -16.1900 C   0  0  0  0  0  0  0  0  0  0  0  0
    0.8087  -51.0904  -17.3727 O   0  0  0  0  0  0  0  0  0  0  0  0
    0.5133  -51.7576  -18.5481 C   0  0  0  0  0  0  0  0  0  0  0  0
    1.3569  -51.6684  -19.6597 C   0  0  0  0  0  0  0  0  0  0  0  0
    0.9972  -52.3617  -20.7970 C   0  0  0  0  0  0  0  0  0  0  0  0
   -0.1464  -53.1229  -20.8652 C   0  0  0  0  0  0  0  0  0  0  0  0
   -0.9507  -53.1942  -19.7721 C   0  0  0  0  0  0  0  0  0  0  0  0
   -0.6372  -52.5154  -18.5971 C   0  0  0  0  0  0  0  0  0  0  0  0
   -1.4746  -52.6047  -17.4950 O   0  0  0  0  0  0  0  0  0  0  0  0
   -2.2316  -51.8544  -15.3546 C   0  0  0  0  0  0  0  0  0  0  0  0
   -4.4643  -51.1064  -15.6127 C   0  0  0  0  0  0  0  0  0  0  0  0
   -3.5334  -52.0622  -15.5056 O   0  0  0  0  0  0  0  0  0  0  0  0
   -0.2020  -54.5929  -25.8901 S   0  0  0  0  0  0  0  0  0  0  0  0
    0.5816  -53.1239  -26.5630 C   0  0  0  0  0  0  0  0  0  0  0  0
    1.5580  -52.5146  -25.6377 C   0  0  0  0  0  0  0  0  0  0  0  0
    1.2925  -51.2344  -25.1521 C   0  0  0  0  0  0  0  0  0  0  0  0
    2.1797  -50.6107  -24.3037 C   0  0  0  0  0  0  0  0  0  0  0  0
    3.3492  -51.2003  -23.8965 C   0  0  0  0  0  0  0  0  0  0  0  0
    3.6066  -52.4675  -24.3810 C   0  0  0  0  0  0  0  0  0  0  0  0
    2.7182  -53.0987  -25.2346 C   0  0  0  0  0  0  0  0  0  0  0  0
    4.3132  -50.5895  -22.9947 C   0  0  0  0  0  0  0  0  0  0  0  0
    4.3654  -50.9728  -21.6479 C   0  0  0  0  0  0  0  0  0  0  0  0
    5.2784  -50.4162  -20.7854 C   0  0  0  0  0  0  0  0  0  0  0  0
    6.1816  -49.4608  -21.1966 C   0  0  0  0  0  0  0  0  0  0  0  0
    6.1426  -49.0738  -22.5159 C   0  0  0  0  0  0  0  0  0  0  0  0
    5.2145  -49.6378  -23.3975 C   0  0  0  0  0  0  0  0  0  0  0  0
    5.2028  -49.1898  -24.7647 C   0  0  0  0  0  0  0  0  0  0  0  0
    5.1950  -48.8036  -25.8631 N   0  0  0  0  0  0  0  0  0  0  0  0
 17 18  1  0  0  0
 18 16  1  0  0  0
 16  6  1  0  0  0
  6  7  1  0  0  0
  7  8  1  0  0  0
  8  9  1  0  0  0
  9 10  2  0  0  0
 10 11  1  0  0  0
 11 12  2  0  0  0
 12  1  1  0  0  0
  1  2  2  0  0  0
  2  3  1  0  0  0
  3  4  2  0  0  0
  4 19  1  0  0  0
 19 20  1  0  0  0
 20 21  1  0  0  0
 21 22  2  0  0  0
 22 23  1  0  0  0
 23 24  2  0  0  0
 24 27  1  0  0  0
 27 28  2  0  0  0
 28 29  1  0  0  0
 29 30  2  0  0  0
 30 31  1  0  0  0
 31 32  2  0  0  0
 32 33  1  0  0  0
 33 34  3  0  0  0
 24 25  1  0  0  0
 25 26  2  0  0  0
  4  5  1  0  0  0
 12 13  1  0  0  0
 13 14  2  0  0  0
 14 15  1  0  0  0
 15  6  1  0  0  0
 14  9  1  0  0  0
  5  1  1  0  0  0
 26 21  1  0  0  0
 32 27  1  0  0  0
M  END
> <minimizedAffinity>
-7.56613

> <CNNscore>
0.6509816647

> <CNNaffinity>
7.1281762123

> <CNN_VS>
4.6403121948

> <CNNaffinity_variance>
0.1858622730

$$$$
[H]c1c([H])c([H])c(-c2c([H])c([H])c(C([H])([H])Sc3nnc(-c4c([H])c([H])c5c(c4[H])O[C@@]([H])(C([H])([H])OC([H])([H])[H])C([H])([H])O5)o3)c([H])c2[H])c(C#N)c1[H]


 34 38  0  0  0  0  0  0  0  0999 V2000
   -0.6670  -53.5429  -21.6928 C   0  0  0  0  0  0  0  0  0  0  0  0
   -1.6446  -54.4230  -21.4818 N   0  0  0  0  0  0  0  0  0  0  0  0
   -1.7225  -55.2103  -22.5325 N   0  0  0  0  0  0  0  0  0  0  0  0
   -0.7933  -54.8313  -23.4138 C   0  0  0  0  0  0  0  0  0  0  0  0
   -0.1662  -53.7962  -22.8488 O   0  0  0  0  0  0  0  0  0  0  0  0
   -0.2167  -50.6306  -16.3292 C   0  0  0  0  0  0  0  0  0  0  0  0
    1.0768  -49.9395  -16.7356 C   0  0  0  0  0  0  0  0  0  0  0  0
    0.8908  -49.5064  -18.0971 O   0  0  0  0  0  0  0  0  0  0  0  0
    0.5150  -50.4827  -19.0024 C   0  0  0  0  0  0  0  0  0  0  0  0
    0.6690  -50.2881  -20.3785 C   0  0  0  0  0  0  0  0  0  0  0  0
    0.2719  -51.3067  -21.2202 C   0  0  0  0  0  0  0  0  0  0  0  0
   -0.2609  -52.4848  -20.7511 C   0  0  0  0  0  0  0  0  0  0  0  0
   -0.4010  -52.6508  -19.4096 C   0  0  0  0  0  0  0  0  0  0  0  0
   -0.0170  -51.6566  -18.5131 C   0  0  0  0  0  0  0  0  0  0  0  0
   -0.1701  -51.8507  -17.1483 O   0  0  0  0  0  0  0  0  0  0  0  0
   -0.2533  -51.0437  -14.8991 C   0  0  0  0  0  0  0  0  0  0  0  0
    0.7283  -52.6056  -13.4133 C   0  0  0  0  0  0  0  0  0  0  0  0
    0.7904  -51.6196  -14.3163 O   0  0  0  0  0  0  0  0  0  0  0  0
   -0.4452  -55.5344  -25.0031 S   0  0  0  0  0  0  0  0  0  0  0  0
   -0.0312  -54.3268  -26.2660 C   0  0  0  0  0  0  0  0  0  0  0  0
    0.7720  -53.2011  -25.7477 C   0  0  0  0  0  0  0  0  0  0  0  0
    0.1866  -51.9355  -25.7175 C   0  0  0  0  0  0  0  0  0  0  0  0
    0.8977  -50.8471  -25.2643 C   0  0  0  0  0  0  0  0  0  0  0  0
    2.1938  -50.9436  -24.8261 C   0  0  0  0  0  0  0  0  0  0  0  0
    2.7680  -52.1990  -24.8588 C   0  0  0  0  0  0  0  0  0  0  0  0
    2.0575  -53.2964  -25.3141 C   0  0  0  0  0  0  0  0  0  0  0  0
    2.9839  -49.8282  -24.3285 C   0  0  0  0  0  0  0  0  0  0  0  0
    3.0367  -49.5540  -22.9555 C   0  0  0  0  0  0  0  0  0  0  0  0
    3.7885  -48.5132  -22.4669 C   0  0  0  0  0  0  0  0  0  0  0  0
    4.5228  -47.6925  -23.2947 C   0  0  0  0  0  0  0  0  0  0  0  0
    4.4809  -47.9489  -24.6454 C   0  0  0  0  0  0  0  0  0  0  0  0
    3.7165  -49.0076  -25.1471 C   0  0  0  0  0  0  0  0  0  0  0  0
    3.6928  -49.2267  -26.5689 C   0  0  0  0  0  0  0  0  0  0  0  0
    3.6873  -49.4248  -27.7163 N   0  0  0  0  0  0  0  0  0  0  0  0
 17 18  1  0  0  0
 18 16  1  0  0  0
 16  6  1  0  0  0
  6  7  1  0  0  0
  7  8  1  0  0  0
  8  9  1  0  0  0
  9 10  2  0  0  0
 10 11  1  0  0  0
 11 12  2  0  0  0
 12  1  1  0  0  0
  1  2  2  0  0  0
  2  3  1  0  0  0
  3  4  2  0  0  0
  4 19  1  0  0  0
 19 20  1  0  0  0
 20 21  1  0  0  0
 21 22  2  0  0  0
 22 23  1  0  0  0
 23 24  2  0  0  0
 24 27  1  0  0  0
 27 28  2  0  0  0
 28 29  1  0  0  0
 29 30  2  0  0  0
 30 31  1  0  0  0
 31 32  2  0  0  0
 32 33  1  0  0  0
 33 34  3  0  0  0
 24 25  1  0  0  0
 25 26  2  0  0  0
  4  5  1  0  0  0
 12 13  1  0  0  0
 13 14  2  0  0  0
 14 15  1  0  0  0
 15  6  1  0  0  0
 14  9  1  0  0  0
  5  1  1  0  0  0
 26 21  1  0  0  0
 32 27  1  0  0  0
M  END
> <minimizedAffinity>
-7.73745

> <CNNscore>
0.6211758852

> <CNNaffinity>
7.0990219116

> <CNN_VS>
4.4097414017

> <CNNaffinity_variance>
0.3008611798

$$$$
[H]c1c([H])c([H])c(-c2c([H])c([H])c(C([H])([H])Sc3nnc(-c4c([H])c([H])c5c(c4[H])O[C@@]([H])(C([H])([H])OC([H])([H])[H])C([H])([H])O5)o3)c([H])c2[H])c(C#N)c1[H]


 34 38  0  0  0  0  0  0  0  0999 V2000
   -0.3591  -53.6469  -21.2796 C   0  0  0  0  0  0  0  0  0  0  0  0
   -1.5627  -54.1552  -21.0195 N   0  0  0  0  0  0  0  0  0  0  0  0
   -1.9025  -54.9390  -22.0196 N   0  0  0  0  0  0  0  0  0  0  0  0
   -0.9141  -54.9299  -22.9178 C   0  0  0  0  0  0  0  0  0  0  0  0
    0.0181  -54.1162  -22.4148 O   0  0  0  0  0  0  0  0  0  0  0  0
    4.3919  -50.3569  -19.2652 C   0  0  0  0  0  0  0  0  0  0  0  0
    3.4867  -49.3388  -18.5871 C   0  0  0  0  0  0  0  0  0  0  0  0
    2.4460  -50.0950  -17.9381 O   0  0  0  0  0  0  0  0  0  0  0  0
    1.7362  -50.9702  -18.7409 C   0  0  0  0  0  0  0  0  0  0  0  0
    0.4908  -51.4657  -18.3426 C   0  0  0  0  0  0  0  0  0  0  0  0
   -0.1582  -52.3342  -19.1957 C   0  0  0  0  0  0  0  0  0  0  0  0
    0.3765  -52.7181  -20.4035 C   0  0  0  0  0  0  0  0  0  0  0  0
    1.5885  -52.2235  -20.7689 C   0  0  0  0  0  0  0  0  0  0  0  0
    2.2886  -51.3433  -19.9476 C   0  0  0  0  0  0  0  0  0  0  0  0
    3.5239  -50.8523  -20.3436 O   0  0  0  0  0  0  0  0  0  0  0  0
    5.6026  -49.7599  -19.8935 C   0  0  0  0  0  0  0  0  0  0  0  0
    6.1823  -49.2131  -22.1242 C   0  0  0  0  0  0  0  0  0  0  0  0
    5.5189  -49.0038  -20.9807 O   0  0  0  0  0  0  0  0  0  0  0  0
   -0.8313  -55.8025  -24.4582 S   0  0  0  0  0  0  0  0  0  0  0  0
    0.0908  -54.9458  -25.7391 C   0  0  0  0  0  0  0  0  0  0  0  0
    0.5899  -53.6251  -25.3064 C   0  0  0  0  0  0  0  0  0  0  0  0
    1.9172  -53.5288  -24.8889 C   0  0  0  0  0  0  0  0  0  0  0  0
    2.4280  -52.3261  -24.4548 C   0  0  0  0  0  0  0  0  0  0  0  0
    1.6770  -51.1793  -24.4096 C   0  0  0  0  0  0  0  0  0  0  0  0
    0.3636  -51.2810  -24.8238 C   0  0  0  0  0  0  0  0  0  0  0  0
   -0.1549  -52.4880  -25.2606 C   0  0  0  0  0  0  0  0  0  0  0  0
    2.1711  -49.8838  -23.9702 C   0  0  0  0  0  0  0  0  0  0  0  0
    1.8801  -49.4139  -22.6826 C   0  0  0  0  0  0  0  0  0  0  0  0
    2.3498  -48.1990  -22.2463 C   0  0  0  0  0  0  0  0  0  0  0  0
    3.1245  -47.3869  -23.0453 C   0  0  0  0  0  0  0  0  0  0  0  0
    3.4185  -47.8343  -24.3123 C   0  0  0  0  0  0  0  0  0  0  0  0
    2.9421  -49.0707  -24.7606 C   0  0  0  0  0  0  0  0  0  0  0  0
    3.2642  -49.4887  -26.0992 C   0  0  0  0  0  0  0  0  0  0  0  0
    3.5169  -49.8500  -27.1769 N   0  0  0  0  0  0  0  0  0  0  0  0
 17 18  1  0  0  0
 18 16  1  0  0  0
 16  6  1  0  0  0
  6  7  1  0  0  0
  7  8  1  0  0  0
  8  9  1  0  0  0
  9 10  2  0  0  0
 10 11  1  0  0  0
 11 12  2  0  0  0
 12  1  1  0  0  0
  1  2  2  0  0  0
  2  3  1  0  0  0
  3  4  2  0  0  0
  4 19  1  0  0  0
 19 20  1  0  0  0
 20 21  1  0  0  0
 21 22  2  0  0  0
 22 23  1  0  0  0
 23 24  2  0  0  0
 24 27  1  0  0  0
 27 28  2  0  0  0
 28 29  1  0  0  0
 29 30  2  0  0  0
 30 31  1  0  0  0
 31 32  2  0  0  0
 32 33  1  0  0  0
 33 34  3  0  0  0
 24 25  1  0  0  0
 25 26  2  0  0  0
  4  5  1  0  0  0
 12 13  1  0  0  0
 13 14  2  0  0  0
 14 15  1  0  0  0
 15  6  1  0  0  0
 14  9  1  0  0  0
  5  1  1  0  0  0
 26 21  1  0  0  0
 32 27  1  0  0  0
M  END
> <minimizedAffinity>
-6.98270

> <CNNscore>
0.5679417253

> <CNNaffinity>
6.8580179214

> <CNN_VS>
3.8949544430

> <CNNaffinity_variance>
0.2746780813

$$$$
[H]c1c([H])c([H])c(-c2c([H])c([H])c(C([H])([H])Sc3nnc(-c4c([H])c([H])c5c(c4[H])O[C@@]([H])(C([H])([H])OC([H])([H])[H])C([H])([H])O5)o3)c([H])c2[H])c(C#N)c1[H]


 34 38  0  0  0  0  0  0  0  0999 V2000
   -0.8465  -53.4372  -20.8383 C   0  0  0  0  0  0  0  0  0  0  0  0
   -1.6271  -54.5118  -20.9418 N   0  0  0  0  0  0  0  0  0  0  0  0
   -1.6148  -54.9093  -22.1954 N   0  0  0  0  0  0  0  0  0  0  0  0
   -0.8255  -54.0869  -22.8914 C   0  0  0  0  0  0  0  0  0  0  0  0
   -0.3735  -53.1929  -22.0079 O   0  0  0  0  0  0  0  0  0  0  0  0
    1.9210  -49.4431  -17.1179 C   0  0  0  0  0  0  0  0  0  0  0  0
    0.6697  -49.2606  -16.2714 C   0  0  0  0  0  0  0  0  0  0  0  0
    0.1114  -50.5764  -16.0898 O   0  0  0  0  0  0  0  0  0  0  0  0
   -0.1406  -51.2972  -17.2436 C   0  0  0  0  0  0  0  0  0  0  0  0
   -1.0075  -52.3942  -17.2338 C   0  0  0  0  0  0  0  0  0  0  0  0
   -1.2100  -53.0641  -18.4228 C   0  0  0  0  0  0  0  0  0  0  0  0
   -0.5941  -52.6891  -19.5941 C   0  0  0  0  0  0  0  0  0  0  0  0
    0.2445  -51.6198  -19.5787 C   0  0  0  0  0  0  0  0  0  0  0  0
    0.4862  -50.9061  -18.4075 C   0  0  0  0  0  0  0  0  0  0  0  0
    1.3463  -49.8180  -18.4183 O   0  0  0  0  0  0  0  0  0  0  0  0
    2.7039  -48.1912  -17.3104 C   0  0  0  0  0  0  0  0  0  0  0  0
    3.3061  -46.8773  -19.1870 C   0  0  0  0  0  0  0  0  0  0  0  0
    3.3975  -47.9702  -18.4198 O   0  0  0  0  0  0  0  0  0  0  0  0
   -0.4421  -54.1460  -24.6208 S   0  0  0  0  0  0  0  0  0  0  0  0
    0.0860  -52.5742  -25.3103 C   0  0  0  0  0  0  0  0  0  0  0  0
    1.3839  -52.1157  -24.7756 C   0  0  0  0  0  0  0  0  0  0  0  0
    2.4488  -53.0163  -24.7738 C   0  0  0  0  0  0  0  0  0  0  0  0
    3.6749  -52.6481  -24.2670 C   0  0  0  0  0  0  0  0  0  0  0  0
    3.9135  -51.4016  -23.7468 C   0  0  0  0  0  0  0  0  0  0  0  0
    2.8553  -50.5146  -23.7509 C   0  0  0  0  0  0  0  0  0  0  0  0
    1.6204  -50.8801  -24.2588 C   0  0  0  0  0  0  0  0  0  0  0  0
    5.1912  -50.9602  -23.2098 C   0  0  0  0  0  0  0  0  0  0  0  0
    6.2136  -50.5379  -24.0699 C   0  0  0  0  0  0  0  0  0  0  0  0
    7.4216  -50.1051  -23.5795 C   0  0  0  0  0  0  0  0  0  0  0  0
    7.6878  -50.0643  -22.2284 C   0  0  0  0  0  0  0  0  0  0  0  0
    6.6940  -50.4760  -21.3712 C   0  0  0  0  0  0  0  0  0  0  0  0
    5.4626  -50.9176  -21.8663 C   0  0  0  0  0  0  0  0  0  0  0  0
    4.4597  -51.3521  -20.9305 C   0  0  0  0  0  0  0  0  0  0  0  0
    3.6448  -51.7244  -20.1869 N   0  0  0  0  0  0  0  0  0  0  0  0
 17 18  1  0  0  0
 18 16  1  0  0  0
 16  6  1  0  0  0
  6  7  1  0  0  0
  7  8  1  0  0  0
  8  9  1  0  0  0
  9 10  2  0  0  0
 10 11  1  0  0  0
 11 12  2  0  0  0
 12  1  1  0  0  0
  1  2  2  0  0  0
  2  3  1  0  0  0
  3  4  2  0  0  0
  4 19  1  0  0  0
 19 20  1  0  0  0
 20 21  1  0  0  0
 21 22  2  0  0  0
 22 23  1  0  0  0
 23 24  2  0  0  0
 24 27  1  0  0  0
 27 28  2  0  0  0
 28 29  1  0  0  0
 29 30  2  0  0  0
 30 31  1  0  0  0
 31 32  2  0  0  0
 32 33  1  0  0  0
 33 34  3  0  0  0
 24 25  1  0  0  0
 25 26  2  0  0  0
  4  5  1  0  0  0
 12 13  1  0  0  0
 13 14  2  0  0  0
 14 15  1  0  0  0
 15  6  1  0  0  0
 14  9  1  0  0  0
  5  1  1  0  0  0
 26 21  1  0  0  0
 32 27  1  0  0  0
M  END
> <minimizedAffinity>
-8.04242

> <CNNscore>
0.5359311104

> <CNNaffinity>
6.5773429871

> <CNN_VS>
3.5250027180

> <CNNaffinity_variance>
0.2410586774

$$$$
[H]c1c([H])c([H])c(-c2c([H])c([H])c(C([H])([H])Sc3nnc(-c4c([H])c([H])c5c(c4[H])O[C@@]([H])(C([H])([H])OC([H])([H])[H])C([H])([H])O5)o3)c([H])c2[H])c(C#N)c1[H]


 34 38  0  0  0  0  0  0  0  0999 V2000
   -0.5404  -53.5512  -22.0000 C   0  0  0  0  0  0  0  0  0  0  0  0
   -1.4398  -54.5090  -21.7802 N   0  0  0  0  0  0  0  0  0  0  0  0
   -1.5000  -55.2696  -22.8516 N   0  0  0  0  0  0  0  0  0  0  0  0
   -0.6380  -54.7957  -23.7548 C   0  0  0  0  0  0  0  0  0  0  0  0
   -0.0684  -53.7323  -23.1814 O   0  0  0  0  0  0  0  0  0  0  0  0
   -0.2132  -50.7061  -16.5915 C   0  0  0  0  0  0  0  0  0  0  0  0
    1.0525  -49.9583  -16.9847 C   0  0  0  0  0  0  0  0  0  0  0  0
    0.8515  -49.5120  -18.3398 O   0  0  0  0  0  0  0  0  0  0  0  0
    0.5158  -50.4884  -19.2607 C   0  0  0  0  0  0  0  0  0  0  0  0
    0.6640  -50.2667  -20.6334 C   0  0  0  0  0  0  0  0  0  0  0  0
    0.3087  -51.2871  -21.4913 C   0  0  0  0  0  0  0  0  0  0  0  0
   -0.1777  -52.4925  -21.0415 C   0  0  0  0  0  0  0  0  0  0  0  0
   -0.3131  -52.6844  -19.7029 C   0  0  0  0  0  0  0  0  0  0  0  0
    0.0300  -51.6898  -18.7905 C   0  0  0  0  0  0  0  0  0  0  0  0
   -0.1173  -51.9107  -17.4291 O   0  0  0  0  0  0  0  0  0  0  0  0
   -0.2356  -51.1423  -15.1680 C   0  0  0  0  0  0  0  0  0  0  0  0
    0.5778  -52.5912  -13.4799 C   0  0  0  0  0  0  0  0  0  0  0  0
    0.5893  -52.0781  -14.7161 O   0  0  0  0  0  0  0  0  0  0  0  0
   -0.3016  -55.4246  -25.3774 S   0  0  0  0  0  0  0  0  0  0  0  0
   -0.2447  -54.1651  -26.6562 C   0  0  0  0  0  0  0  0  0  0  0  0
    0.5749  -52.9958  -26.2793 C   0  0  0  0  0  0  0  0  0  0  0  0
    1.9628  -53.1198  -26.3387 C   0  0  0  0  0  0  0  0  0  0  0  0
    2.7747  -52.0680  -25.9777 C   0  0  0  0  0  0  0  0  0  0  0  0
    2.2754  -50.8646  -25.5490 C   0  0  0  0  0  0  0  0  0  0  0  0
    0.9007  -50.7481  -25.4919 C   0  0  0  0  0  0  0  0  0  0  0  0
    0.0800  -51.8028  -25.8532 C   0  0  0  0  0  0  0  0  0  0  0  0
    3.0886  -49.7206  -25.1670 C   0  0  0  0  0  0  0  0  0  0  0  0
    3.1914  -48.6097  -26.0146 C   0  0  0  0  0  0  0  0  0  0  0  0
    3.9439  -47.5152  -25.6638 C   0  0  0  0  0  0  0  0  0  0  0  0
    4.6302  -47.4541  -24.4709 C   0  0  0  0  0  0  0  0  0  0  0  0
    4.5393  -48.5373  -23.6281 C   0  0  0  0  0  0  0  0  0  0  0  0
    3.7743  -49.6538  -23.9814 C   0  0  0  0  0  0  0  0  0  0  0  0
    3.7220  -50.7684  -23.0730 C   0  0  0  0  0  0  0  0  0  0  0  0
    3.6558  -51.6648  -22.3329 N   0  0  0  0  0  0  0  0  0  0  0  0
 17 18  1  0  0  0
 18 16  1  0  0  0
 16  6  1  0  0  0
  6  7  1  0  0  0
  7  8  1  0  0  0
  8  9  1  0  0  0
  9 10  2  0  0  0
 10 11  1  0  0  0
 11 12  2  0  0  0
 12  1  1  0  0  0
  1  2  2  0  0  0
  2  3  1  0  0  0
  3  4  2  0  0  0
  4 19  1  0  0  0
 19 20  1  0  0  0
 20 21  1  0  0  0
 21 22  2  0  0  0
 22 23  1  0  0  0
 23 24  2  0  0  0
 24 27  1  0  0  0
 27 28  2  0  0  0
 28 29  1  0  0  0
 29 30  2  0  0  0
 30 31  1  0  0  0
 31 32  2  0  0  0
 32 33  1  0  0  0
 33 34  3  0  0  0
 24 25  1  0  0  0
 25 26  2  0  0  0
  4  5  1  0  0  0
 12 13  1  0  0  0
 13 14  2  0  0  0
 14 15  1  0  0  0
 15  6  1  0  0  0
 14  9  1  0  0  0
  5  1  1  0  0  0
 26 21  1  0  0  0
 32 27  1  0  0  0
M  END
> <minimizedAffinity>
-7.56063

> <CNNscore>
0.5185423493

> <CNNaffinity>
7.0313620567

> <CNN_VS>
3.6460590363

> <CNNaffinity_variance>
0.3516344428

$$$$
[H]c1c([H])c([H])c(-c2c([H])c([H])c(C([H])([H])Sc3nnc(-c4c([H])c([H])c5c(c4[H])O[C@@]([H])(C([H])([H])OC([H])([H])[H])C([H])([H])O5)o3)c([H])c2[H])c(C#N)c1[H]


 34 38  0  0  0  0  0  0  0  0999 V2000
   -0.6593  -53.2272  -20.8943 C   0  0  0  0  0  0  0  0  0  0  0  0
   -1.3715  -54.3507  -20.8211 N   0  0  0  0  0  0  0  0  0  0  0  0
   -1.4446  -54.8701  -22.0272 N   0  0  0  0  0  0  0  0  0  0  0  0
   -0.7782  -54.0767  -22.8698 C   0  0  0  0  0  0  0  0  0  0  0  0
   -0.3105  -53.0739  -22.1216 O   0  0  0  0  0  0  0  0  0  0  0  0
   -0.9691  -51.0734  -15.1744 C   0  0  0  0  0  0  0  0  0  0  0  0
    0.4303  -50.4803  -15.2493 C   0  0  0  0  0  0  0  0  0  0  0  0
    0.5366  -49.8629  -16.5469 O   0  0  0  0  0  0  0  0  0  0  0  0
    0.2549  -50.6723  -17.6330 C   0  0  0  0  0  0  0  0  0  0  0  0
    0.6768  -50.3250  -18.9200 C   0  0  0  0  0  0  0  0  0  0  0  0
    0.3590  -51.1817  -19.9537 C   0  0  0  0  0  0  0  0  0  0  0  0
   -0.3478  -52.3450  -19.7560 C   0  0  0  0  0  0  0  0  0  0  0  0
   -0.7474  -52.6612  -18.4961 C   0  0  0  0  0  0  0  0  0  0  0  0
   -0.4546  -51.8340  -17.4147 C   0  0  0  0  0  0  0  0  0  0  0  0
   -0.8735  -52.1795  -16.1383 O   0  0  0  0  0  0  0  0  0  0  0  0
   -1.3044  -51.6556  -13.8455 C   0  0  0  0  0  0  0  0  0  0  0  0
   -3.6255  -52.1241  -13.9061 C   0  0  0  0  0  0  0  0  0  0  0  0
   -2.5329  -51.5885  -13.3487 O   0  0  0  0  0  0  0  0  0  0  0  0
   -0.5479  -54.2858  -24.6146 S   0  0  0  0  0  0  0  0  0  0  0  0
    0.1156  -52.8393  -25.4466 C   0  0  0  0  0  0  0  0  0  0  0  0
    1.4117  -52.3983  -24.8932 C   0  0  0  0  0  0  0  0  0  0  0  0
    1.4790  -51.1360  -24.3037 C   0  0  0  0  0  0  0  0  0  0  0  0
    2.6676  -50.6663  -23.7913 C   0  0  0  0  0  0  0  0  0  0  0  0
    3.8274  -51.3972  -23.8303 C   0  0  0  0  0  0  0  0  0  0  0  0
    3.7546  -52.6459  -24.4154 C   0  0  0  0  0  0  0  0  0  0  0  0
    2.5622  -53.1226  -24.9326 C   0  0  0  0  0  0  0  0  0  0  0  0
    5.1043  -50.9517  -23.2945 C   0  0  0  0  0  0  0  0  0  0  0  0
    6.1016  -50.4666  -24.1509 C   0  0  0  0  0  0  0  0  0  0  0  0
    7.3081  -50.0291  -23.6609 C   0  0  0  0  0  0  0  0  0  0  0  0
    7.5972  -50.0448  -22.3140 C   0  0  0  0  0  0  0  0  0  0  0  0
    6.6282  -50.5186  -21.4606 C   0  0  0  0  0  0  0  0  0  0  0  0
    5.3983  -50.9652  -21.9552 C   0  0  0  0  0  0  0  0  0  0  0  0
    4.4221  -51.4656  -21.0242 C   0  0  0  0  0  0  0  0  0  0  0  0
    3.6477  -51.8653  -20.2520 N   0  0  0  0  0  0  0  0  0  0  0  0
 17 18  1  0  0  0
 18 16  1  0  0  0
 16  6  1  0  0  0
  6  7  1  0  0  0
  7  8  1  0  0  0
  8  9  1  0  0  0
  9 10  2  0  0  0
 10 11  1  0  0  0
 11 12  2  0  0  0
 12  1  1  0  0  0
  1  2  2  0  0  0
  2  3  1  0  0  0
  3  4  2  0  0  0
  4 19  1  0  0  0
 19 20  1  0  0  0
 20 21  1  0  0  0
 21 22  2  0  0  0
 22 23  1  0  0  0
 23 24  2  0  0  0
 24 27  1  0  0  0
 27 28  2  0  0  0
 28 29  1  0  0  0
 29 30  2  0  0  0
 30 31  1  0  0  0
 31 32  2  0  0  0
 32 33  1  0  0  0
 33 34  3  0  0  0
 24 25  1  0  0  0
 25 26  2  0  0  0
  4  5  1  0  0  0
 12 13  1  0  0  0
 13 14  2  0  0  0
 14 15  1  0  0  0
 15  6  1  0  0  0
 14  9  1  0  0  0
  5  1  1  0  0  0
 26 21  1  0  0  0
 32 27  1  0  0  0
M  END
> <minimizedAffinity>
-8.01187

> <CNNscore>
0.4966666698

> <CNNaffinity>
6.7154045105

> <CNN_VS>
3.3353176117

> <CNNaffinity_variance>
0.3123028874

$$$$
[H]c1c([H])c([H])c(-c2c([H])c([H])c(C([H])([H])Sc3nnc(-c4c([H])c([H])c5c(c4[H])O[C@@]([H])(C([H])([H])OC([H])([H])[H])C([H])([H])O5)o3)c([H])c2[H])c(C#N)c1[H]


 34 38  0  0  0  0  0  0  0  0999 V2000
   -0.8347  -53.4653  -20.8106 C   0  0  0  0  0  0  0  0  0  0  0  0
   -1.6789  -54.4945  -20.8654 N   0  0  0  0  0  0  0  0  0  0  0  0
   -1.6831  -54.9573  -22.0965 N   0  0  0  0  0  0  0  0  0  0  0  0
   -0.8405  -54.2222  -22.8268 C   0  0  0  0  0  0  0  0  0  0  0  0
   -0.3403  -53.3121  -21.9868 O   0  0  0  0  0  0  0  0  0  0  0  0
    2.0547  -49.3444  -17.3289 C   0  0  0  0  0  0  0  0  0  0  0  0
    0.8274  -49.1191  -16.4578 C   0  0  0  0  0  0  0  0  0  0  0  0
    0.2662  -50.4225  -16.2086 O   0  0  0  0  0  0  0  0  0  0  0  0
   -0.0207  -51.1874  -17.3252 C   0  0  0  0  0  0  0  0  0  0  0  0
   -0.8937  -52.2769  -17.2483 C   0  0  0  0  0  0  0  0  0  0  0  0
   -1.1317  -52.9927  -18.4035 C   0  0  0  0  0  0  0  0  0  0  0  0
   -0.5448  -52.6696  -19.6048 C   0  0  0  0  0  0  0  0  0  0  0  0
    0.3003  -51.6065  -19.6547 C   0  0  0  0  0  0  0  0  0  0  0  0
    0.5773  -50.8479  -18.5201 C   0  0  0  0  0  0  0  0  0  0  0  0
    1.4434  -49.7673  -18.5975 O   0  0  0  0  0  0  0  0  0  0  0  0
    2.8397  -48.1069  -17.5923 C   0  0  0  0  0  0  0  0  0  0  0  0
    4.5644  -48.2385  -19.2107 C   0  0  0  0  0  0  0  0  0  0  0  0
    3.3540  -47.8530  -18.7888 O   0  0  0  0  0  0  0  0  0  0  0  0
   -0.4506  -54.3954  -24.5471 S   0  0  0  0  0  0  0  0  0  0  0  0
    0.0746  -52.8713  -25.3383 C   0  0  0  0  0  0  0  0  0  0  0  0
    1.3377  -52.3401  -24.7879 C   0  0  0  0  0  0  0  0  0  0  0  0
    1.2928  -51.1375  -24.0829 C   0  0  0  0  0  0  0  0  0  0  0  0
    2.4442  -50.5862  -23.5670 C   0  0  0  0  0  0  0  0  0  0  0  0
    3.6739  -51.1757  -23.7136 C   0  0  0  0  0  0  0  0  0  0  0  0
    3.7120  -52.3659  -24.4128 C   0  0  0  0  0  0  0  0  0  0  0  0
    2.5573  -52.9241  -24.9339 C   0  0  0  0  0  0  0  0  0  0  0  0
    4.9166  -50.6407  -23.1796 C   0  0  0  0  0  0  0  0  0  0  0  0
    5.4013  -51.0773  -21.9395 C   0  0  0  0  0  0  0  0  0  0  0  0
    6.5799  -50.5927  -21.4264 C   0  0  0  0  0  0  0  0  0  0  0  0
    7.3394  -49.6607  -22.0989 C   0  0  0  0  0  0  0  0  0  0  0  0
    6.8766  -49.2220  -23.3176 C   0  0  0  0  0  0  0  0  0  0  0  0
    5.6770  -49.7126  -23.8437 C   0  0  0  0  0  0  0  0  0  0  0  0
    5.2269  -49.2123  -25.1154 C   0  0  0  0  0  0  0  0  0  0  0  0
    4.8859  -48.7994  -26.1493 N   0  0  0  0  0  0  0  0  0  0  0  0
 17 18  1  0  0  0
 18 16  1  0  0  0
 16  6  1  0  0  0
  6  7  1  0  0  0
  7  8  1  0  0  0
  8  9  1  0  0  0
  9 10  2  0  0  0
 10 11  1  0  0  0
 11 12  2  0  0  0
 12  1  1  0  0  0
  1  2  2  0  0  0
  2  3  1  0  0  0
  3  4  2  0  0  0
  4 19  1  0  0  0
 19 20  1  0  0  0
 20 21  1  0  0  0
 21 22  2  0  0  0
 22 23  1  0  0  0
 23 24  2  0  0  0
 24 27  1  0  0  0
 27 28  2  0  0  0
 28 29  1  0  0  0
 29 30  2  0  0  0
 30 31  1  0  0  0
 31 32  2  0  0  0
 32 33  1  0  0  0
 33 34  3  0  0  0
 24 25  1  0  0  0
 25 26  2  0  0  0
  4  5  1  0  0  0
 12 13  1  0  0  0
 13 14  2  0  0  0
 14 15  1  0  0  0
 15  6  1  0  0  0
 14  9  1  0  0  0
  5  1  1  0  0  0
 26 21  1  0  0  0
 32 27  1  0  0  0
M  END
> <minimizedAffinity>
-7.54692

> <CNNscore>
0.4697504640

> <CNNaffinity>
6.6027097702

> <CNN_VS>
3.1016259193

> <CNNaffinity_variance>
0.1728281528

$$$$
[H]c1c([H])c([H])c(-c2c([H])c([H])c(C([H])([H])Sc3nnc(-c4c([H])c([H])c5c(c4[H])O[C@@]([H])(C([H])([H])OC([H])([H])[H])C([H])([H])O5)o3)c([H])c2[H])c(C#N)c1[H]


 34 38  0  0  0  0  0  0  0  0999 V2000
   -0.3623  -53.4960  -20.8382 C   0  0  0  0  0  0  0  0  0  0  0  0
   -1.5608  -54.0427  -20.6392 N   0  0  0  0  0  0  0  0  0  0  0  0
   -1.8589  -54.7733  -21.6915 N   0  0  0  0  0  0  0  0  0  0  0  0
   -0.8491  -54.6920  -22.5617 C   0  0  0  0  0  0  0  0  0  0  0  0
    0.0528  -53.8906  -21.9885 O   0  0  0  0  0  0  0  0  0  0  0  0
    0.2058  -49.2656  -16.4525 C   0  0  0  0  0  0  0  0  0  0  0  0
    1.5572  -49.8076  -16.0101 C   0  0  0  0  0  0  0  0  0  0  0  0
    2.2871  -50.1024  -17.2170 O   0  0  0  0  0  0  0  0  0  0  0  0
    1.6596  -50.9415  -18.1204 C   0  0  0  0  0  0  0  0  0  0  0  0
    2.3849  -51.5966  -19.1203 C   0  0  0  0  0  0  0  0  0  0  0  0
    1.6908  -52.4179  -19.9847 C   0  0  0  0  0  0  0  0  0  0  0  0
    0.3314  -52.6056  -19.8910 C   0  0  0  0  0  0  0  0  0  0  0  0
   -0.3522  -51.9580  -18.9110 C   0  0  0  0  0  0  0  0  0  0  0  0
    0.2966  -51.1169  -18.0104 C   0  0  0  0  0  0  0  0  0  0  0  0
   -0.4238  -50.4676  -17.0188 O   0  0  0  0  0  0  0  0  0  0  0  0
   -0.6481  -48.7910  -15.3289 C   0  0  0  0  0  0  0  0  0  0  0  0
   -2.9090  -48.1134  -15.1286 C   0  0  0  0  0  0  0  0  0  0  0  0
   -1.6435  -47.9363  -15.5270 O   0  0  0  0  0  0  0  0  0  0  0  0
   -0.7095  -55.4712  -24.1475 S   0  0  0  0  0  0  0  0  0  0  0  0
   -0.5300  -54.3234  -25.5168 C   0  0  0  0  0  0  0  0  0  0  0  0
    0.4437  -53.2470  -25.2444 C   0  0  0  0  0  0  0  0  0  0  0  0
    0.0180  -51.9259  -25.3818 C   0  0  0  0  0  0  0  0  0  0  0  0
    0.8905  -50.8839  -25.1612 C   0  0  0  0  0  0  0  0  0  0  0  0
    2.1991  -51.0815  -24.8014 C   0  0  0  0  0  0  0  0  0  0  0  0
    2.6148  -52.3915  -24.6675 C   0  0  0  0  0  0  0  0  0  0  0  0
    1.7416  -53.4428  -24.8886 C   0  0  0  0  0  0  0  0  0  0  0  0
    3.1569  -50.0167  -24.5469 C   0  0  0  0  0  0  0  0  0  0  0  0
    4.2230  -49.7966  -25.4292 C   0  0  0  0  0  0  0  0  0  0  0  0
    5.1289  -48.7871  -25.2116 C   0  0  0  0  0  0  0  0  0  0  0  0
    5.0367  -47.9464  -24.1242 C   0  0  0  0  0  0  0  0  0  0  0  0
    3.9955  -48.1500  -23.2487 C   0  0  0  0  0  0  0  0  0  0  0  0
    3.0709  -49.1769  -23.4664 C   0  0  0  0  0  0  0  0  0  0  0  0
    2.0076  -49.3595  -22.5145 C   0  0  0  0  0  0  0  0  0  0  0  0
    1.1636  -49.5165  -21.7278 N   0  0  0  0  0  0  0  0  0  0  0  0
 17 18  1  0  0  0
 18 16  1  0  0  0
 16  6  1  0  0  0
  6  7  1  0  0  0
  7  8  1  0  0  0
  8  9  1  0  0  0
  9 10  2  0  0  0
 10 11  1  0  0  0
 11 12  2  0  0  0
 12  1  1  0  0  0
  1  2  2  0  0  0
  2  3  1  0  0  0
  3  4  2  0  0  0
  4 19  1  0  0  0
 19 20  1  0  0  0
 20 21  1  0  0  0
 21 22  2  0  0  0
 22 23  1  0  0  0
 23 24  2  0  0  0
 24 27  1  0  0  0
 27 28  2  0  0  0
 28 29  1  0  0  0
 29 30  2  0  0  0
 30 31  1  0  0  0
 31 32  2  0  0  0
 32 33  1  0  0  0
 33 34  3  0  0  0
 24 25  1  0  0  0
 25 26  2  0  0  0
  4  5  1  0  0  0
 12 13  1  0  0  0
 13 14  2  0  0  0
 14 15  1  0  0  0
 15  6  1  0  0  0
 14  9  1  0  0  0
  5  1  1  0  0  0
 26 21  1  0  0  0
 32 27  1  0  0  0
M  END
> <minimizedAffinity>
-7.24475

> <CNNscore>
0.4378909171

> <CNNaffinity>
6.6832113266

> <CNN_VS>
2.9265174866

> <CNNaffinity_variance>
0.4085943103

$$$$
[H]c1c([H])c([H])c(-c2c([H])c([H])c(C([H])([H])Sc3nnc(-c4c([H])c([H])c5c(c4[H])O[C@@]([H])(C([H])([H])OC([H])([H])[H])C([H])([H])O5)o3)c([H])c2[H])c(C#N)c1[H]


 34 38  0  0  0  0  0  0  0  0999 V2000
   -0.5988  -53.9103  -22.3398 C   0  0  0  0  0  0  0  0  0  0  0  0
   -1.4569  -54.9260  -22.4226 N   0  0  0  0  0  0  0  0  0  0  0  0
   -1.4258  -55.3908  -23.6526 N   0  0  0  0  0  0  0  0  0  0  0  0
   -0.5468  -54.6705  -24.3541 C   0  0  0  0  0  0  0  0  0  0  0  0
   -0.0615  -53.7670  -23.4982 O   0  0  0  0  0  0  0  0  0  0  0  0
    2.0733  -49.6582  -18.8423 C   0  0  0  0  0  0  0  0  0  0  0  0
    0.8530  -49.5345  -17.9417 C   0  0  0  0  0  0  0  0  0  0  0  0
    0.3895  -50.8781  -17.7053 O   0  0  0  0  0  0  0  0  0  0  0  0
    0.1319  -51.6417  -18.8299 C   0  0  0  0  0  0  0  0  0  0  0  0
   -0.6612  -52.7909  -18.7552 C   0  0  0  0  0  0  0  0  0  0  0  0
   -0.8745  -53.5014  -19.9185 C   0  0  0  0  0  0  0  0  0  0  0  0
   -0.3383  -53.1173  -21.1255 C   0  0  0  0  0  0  0  0  0  0  0  0
    0.4295  -51.9969  -21.1731 C   0  0  0  0  0  0  0  0  0  0  0  0
    0.6781  -51.2406  -20.0304 C   0  0  0  0  0  0  0  0  0  0  0  0
    1.4649  -50.1008  -20.1055 O   0  0  0  0  0  0  0  0  0  0  0  0
    2.7643  -48.3644  -19.0988 C   0  0  0  0  0  0  0  0  0  0  0  0
    3.5003  -46.9184  -20.8245 C   0  0  0  0  0  0  0  0  0  0  0  0
    2.5863  -47.6952  -20.2306 O   0  0  0  0  0  0  0  0  0  0  0  0
   -0.1002  -54.8527  -26.0595 S   0  0  0  0  0  0  0  0  0  0  0  0
   -0.2297  -53.3400  -27.0185 C   0  0  0  0  0  0  0  0  0  0  0  0
    0.7797  -52.3296  -26.6429 C   0  0  0  0  0  0  0  0  0  0  0  0
    1.9748  -52.2963  -27.3612 C   0  0  0  0  0  0  0  0  0  0  0  0
    2.9589  -51.3888  -27.0389 C   0  0  0  0  0  0  0  0  0  0  0  0
    2.8227  -50.4857  -26.0157 C   0  0  0  0  0  0  0  0  0  0  0  0
    1.6376  -50.5239  -25.3080 C   0  0  0  0  0  0  0  0  0  0  0  0
    0.6452  -51.4347  -25.6277 C   0  0  0  0  0  0  0  0  0  0  0  0
    3.8262  -49.5011  -25.6424 C   0  0  0  0  0  0  0  0  0  0  0  0
    3.7227  -48.1781  -26.0923 C   0  0  0  0  0  0  0  0  0  0  0  0
    4.6539  -47.2322  -25.7384 C   0  0  0  0  0  0  0  0  0  0  0  0
    5.7282  -47.5330  -24.9302 C   0  0  0  0  0  0  0  0  0  0  0  0
    5.8437  -48.8278  -24.4807 C   0  0  0  0  0  0  0  0  0  0  0  0
    4.8979  -49.7942  -24.8387 C   0  0  0  0  0  0  0  0  0  0  0  0
    5.0699  -51.1385  -24.3556 C   0  0  0  0  0  0  0  0  0  0  0  0
    5.1847  -52.2272  -23.9590 N   0  0  0  0  0  0  0  0  0  0  0  0
 17 18  1  0  0  0
 18 16  1  0  0  0
 16  6  1  0  0  0
  6  7  1  0  0  0
  7  8  1  0  0  0
  8  9  1  0  0  0
  9 10  2  0  0  0
 10 11  1  0  0  0
 11 12  2  0  0  0
 12  1  1  0  0  0
  1  2  2  0  0  0
  2  3  1  0  0  0
  3  4  2  0  0  0
  4 19  1  0  0  0
 19 20  1  0  0  0
 20 21  1  0  0  0
 21 22  2  0  0  0
 22 23  1  0  0  0
 23 24  2  0  0  0
 24 27  1  0  0  0
 27 28  2  0  0  0
 28 29  1  0  0  0
 29 30  2  0  0  0
 30 31  1  0  0  0
 31 32  2  0  0  0
 32 33  1  0  0  0
 33 34  3  0  0  0
 24 25  1  0  0  0
 25 26  2  0  0  0
  4  5  1  0  0  0
 12 13  1  0  0  0
 13 14  2  0  0  0
 14 15  1  0  0  0
 15  6  1  0  0  0
 14  9  1  0  0  0
  5  1  1  0  0  0
 26 21  1  0  0  0
 32 27  1  0  0  0
M  END
> <minimizedAffinity>
-7.46822

> <CNNscore>
0.4187586606

> <CNNaffinity>
6.7770776749

> <CNN_VS>
2.8379600048

> <CNNaffinity_variance>
0.2332545072

$$$$
[H]c1c([H])c([H])c(C2([H])C([H])([H])[C@]2([H])N([H])C([H])([H])c2c([H])c([H])c(OC([H])([H])[H])c3c([H])c([H])c([H])c([H])c23)c([H])c1[H]


 24 27  0  0  0  0  0  0  0  0999 V2000
    0.3011  -52.1068  -19.5361 C   0  0  0  0  0  0  0  0  0  0  0  0
    1.4434  -51.3788  -19.7579 C   0  0  0  0  0  0  0  0  0  0  0  0
    2.1080  -51.4004  -20.9761 C   0  0  0  0  0  0  0  0  0  0  0  0
    1.6362  -52.1654  -22.0191 C   0  0  0  0  0  0  0  0  0  0  0  0
    0.4747  -52.9090  -21.8018 C   0  0  0  0  0  0  0  0  0  0  0  0
    0.0098  -53.6721  -22.8531 C   0  0  0  0  0  0  0  0  0  0  0  0
   -1.1436  -54.4040  -22.6214 C   0  0  0  0  0  0  0  0  0  0  0  0
   -1.8024  -54.3838  -21.4176 C   0  0  0  0  0  0  0  0  0  0  0  0
   -1.3265  -53.6170  -20.3764 C   0  0  0  0  0  0  0  0  0  0  0  0
   -0.1644  -52.8706  -20.5877 C   0  0  0  0  0  0  0  0  0  0  0  0
   -0.0935  -51.0444  -17.3753 C   0  0  0  0  0  0  0  0  0  0  0  0
   -0.3634  -52.0797  -18.3051 O   0  0  0  0  0  0  0  0  0  0  0  0
    2.3171  -52.2064  -23.3410 C   0  0  0  0  0  0  0  0  0  0  0  0
    2.1870  -50.9308  -23.9735 N   0  0  0  0  0  0  0  0  0  0  0  0
    3.1090  -50.4534  -24.1324 H   0  0  0  0  0  0  0  0  0  0  0  0
    1.3796  -50.9449  -25.1627 C   0  0  0  0  0  0  0  0  0  0  0  0
    2.2026  -51.1288  -26.4431 C   0  0  0  0  0  0  0  0  0  0  0  0
    1.2013  -52.1339  -26.0119 C   0  0  0  0  0  0  0  0  0  0  0  0
   -0.0762  -52.2448  -26.7548 C   0  0  0  0  0  0  0  0  0  0  0  0
   -1.3118  -52.0311  -26.1893 C   0  0  0  0  0  0  0  0  0  0  0  0
   -2.4770  -52.1397  -26.8965 C   0  0  0  0  0  0  0  0  0  0  0  0
   -2.4472  -52.4724  -28.2214 C   0  0  0  0  0  0  0  0  0  0  0  0
   -1.2242  -52.6930  -28.8175 C   0  0  0  0  0  0  0  0  0  0  0  0
   -0.0544  -52.5791  -28.0880 C   0  0  0  0  0  0  0  0  0  0  0  0
 11 12  1  0  0  0
 12  1  1  0  0  0
  1  2  2  0  0  0
  2  3  1  0  0  0
  3  4  2  0  0  0
  4 13  1  0  0  0
 13 14  1  0  0  0
 14 16  1  0  0  0
 16 17  1  0  0  0
 17 18  1  0  0  0
 18 19  1  0  0  0
 19 20  2  0  0  0
 20 21  1  0  0  0
 21 22  2  0  0  0
 22 23  1  0  0  0
 23 24  2  0  0  0
  4  5  1  0  0  0
  5  6  2  0  0  0
  6  7  1  0  0  0
  7  8  2  0  0  0
  8  9  1  0  0  0
  9 10  2  0  0  0
 10  1  1  0  0  0
 18 16  1  0  0  0
 24 19  1  0  0  0
 10  5  1  0  0  0
 14 15  1  0  0  0
M  END
> <minimizedAffinity>
-7.99104

> <CNNscore>
0.4995477498

> <CNNaffinity>
5.9739556313

> <CNN_VS>
2.9842760563

> <CNNaffinity_variance>
0.1589009315

$$$$
[H]c1c([H])c([H])c(C2([H])C([H])([H])[C@]2([H])N([H])C([H])([H])c2c([H])c([H])c(OC([H])([H])[H])c3c([H])c([H])c([H])c([H])c23)c([H])c1[H]


 24 27  0  0  0  0  0  0  0  0999 V2000
    0.1153  -52.1251  -22.0385 C   0  0  0  0  0  0  0  0  0  0  0  0
    0.6296  -53.0585  -22.9035 C   0  0  0  0  0  0  0  0  0  0  0  0
    1.7720  -52.8192  -23.6545 C   0  0  0  0  0  0  0  0  0  0  0  0
    2.4377  -51.6181  -23.5553 C   0  0  0  0  0  0  0  0  0  0  0  0
    1.9213  -50.6630  -22.6775 C   0  0  0  0  0  0  0  0  0  0  0  0
    2.5957  -49.4630  -22.5851 C   0  0  0  0  0  0  0  0  0  0  0  0
    2.0705  -48.5260  -21.7098 C   0  0  0  0  0  0  0  0  0  0  0  0
    0.9411  -48.7609  -20.9663 C   0  0  0  0  0  0  0  0  0  0  0  0
    0.2778  -49.9642  -21.0688 C   0  0  0  0  0  0  0  0  0  0  0  0
    0.7898  -50.9240  -21.9457 C   0  0  0  0  0  0  0  0  0  0  0  0
   -1.2395  -53.6477  -20.6970 C   0  0  0  0  0  0  0  0  0  0  0  0
   -1.0369  -52.3738  -21.2847 O   0  0  0  0  0  0  0  0  0  0  0  0
    3.6695  -51.3298  -24.3378 C   0  0  0  0  0  0  0  0  0  0  0  0
    3.7009  -52.1770  -25.4891 N   0  0  0  0  0  0  0  0  0  0  0  0
    3.7882  -53.1958  -25.2490 H   0  0  0  0  0  0  0  0  0  0  0  0
    2.6357  -51.9368  -26.4239 C   0  0  0  0  0  0  0  0  0  0  0  0
    3.0674  -52.1196  -27.8836 C   0  0  0  0  0  0  0  0  0  0  0  0
    2.0369  -52.9870  -27.2636 C   0  0  0  0  0  0  0  0  0  0  0  0
    0.6173  -52.8112  -27.6509 C   0  0  0  0  0  0  0  0  0  0  0  0
    0.1450  -52.9895  -28.9305 C   0  0  0  0  0  0  0  0  0  0  0  0
   -1.1705  -52.8211  -29.2630 C   0  0  0  0  0  0  0  0  0  0  0  0
   -2.0791  -52.4612  -28.3079 C   0  0  0  0  0  0  0  0  0  0  0  0
   -1.6371  -52.2748  -27.0157 C   0  0  0  0  0  0  0  0  0  0  0  0
   -0.3026  -52.4492  -26.6957 C   0  0  0  0  0  0  0  0  0  0  0  0
 11 12  1  0  0  0
 12  1  1  0  0  0
  1  2  2  0  0  0
  2  3  1  0  0  0
  3  4  2  0  0  0
  4 13  1  0  0  0
 13 14  1  0  0  0
 14 16  1  0  0  0
 16 17  1  0  0  0
 17 18  1  0  0  0
 18 19  1  0  0  0
 19 20  2  0  0  0
 20 21  1  0  0  0
 21 22  2  0  0  0
 22 23  1  0  0  0
 23 24  2  0  0  0
  4  5  1  0  0  0
  5  6  2  0  0  0
  6  7  1  0  0  0
  7  8  2  0  0  0
  8  9  1  0  0  0
  9 10  2  0  0  0
 10  1  1  0  0  0
 18 16  1  0  0  0
 24 19  1  0  0  0
 10  5  1  0  0  0
 14 15  1  0  0  0
M  END
> <minimizedAffinity>
-7.85085

> <CNNscore>
0.4917638600

> <CNNaffinity>
5.8564734459

> <CNN_VS>
2.8800020218

> <CNNaffinity_variance>
0.1491037011

$$$$
[H]c1c([H])c([H])c(C2([H])C([H])([H])[C@]2([H])N([H])C([H])([H])c2c([H])c([H])c(OC([H])([H])[H])c3c([H])c([H])c([H])c([H])c23)c([H])c1[H]


 24 27  0  0  0  0  0  0  0  0999 V2000
    0.1140  -52.4016  -21.3021 C   0  0  0  0  0  0  0  0  0  0  0  0
   -0.1622  -52.4199  -22.6464 C   0  0  0  0  0  0  0  0  0  0  0  0
    0.7378  -51.9478  -23.5917 C   0  0  0  0  0  0  0  0  0  0  0  0
    1.9567  -51.4370  -23.2060 C   0  0  0  0  0  0  0  0  0  0  0  0
    2.2456  -51.4147  -21.8402 C   0  0  0  0  0  0  0  0  0  0  0  0
    3.4696  -50.9011  -21.4640 C   0  0  0  0  0  0  0  0  0  0  0  0
    3.7410  -50.8861  -20.1053 C   0  0  0  0  0  0  0  0  0  0  0  0
    2.8525  -51.3526  -19.1690 C   0  0  0  0  0  0  0  0  0  0  0  0
    1.6336  -51.8628  -19.5595 C   0  0  0  0  0  0  0  0  0  0  0  0
    1.3386  -51.8877  -20.9250 C   0  0  0  0  0  0  0  0  0  0  0  0
   -1.6989  -53.9190  -20.6983 C   0  0  0  0  0  0  0  0  0  0  0  0
   -0.7985  -52.8794  -20.3551 O   0  0  0  0  0  0  0  0  0  0  0  0
    2.9493  -50.9303  -24.1913 C   0  0  0  0  0  0  0  0  0  0  0  0
    3.1915  -51.9413  -25.1728 N   0  0  0  0  0  0  0  0  0  0  0  0
    3.2572  -52.9063  -24.7633 H   0  0  0  0  0  0  0  0  0  0  0  0
    2.2949  -51.8963  -26.2955 C   0  0  0  0  0  0  0  0  0  0  0  0
    2.8764  -52.5529  -27.5530 C   0  0  0  0  0  0  0  0  0  0  0  0
    1.6669  -53.0902  -26.8845 C   0  0  0  0  0  0  0  0  0  0  0  0
    0.3448  -52.9068  -27.5283 C   0  0  0  0  0  0  0  0  0  0  0  0
   -0.8122  -52.6319  -26.8367 C   0  0  0  0  0  0  0  0  0  0  0  0
   -2.0209  -52.4668  -27.4542 C   0  0  0  0  0  0  0  0  0  0  0  0
   -2.1174  -52.5728  -28.8131 C   0  0  0  0  0  0  0  0  0  0  0  0
   -0.9758  -52.8476  -29.5348 C   0  0  0  0  0  0  0  0  0  0  0  0
    0.2395  -53.0118  -28.8949 C   0  0  0  0  0  0  0  0  0  0  0  0
 11 12  1  0  0  0
 12  1  1  0  0  0
  1  2  2  0  0  0
  2  3  1  0  0  0
  3  4  2  0  0  0
  4 13  1  0  0  0
 13 14  1  0  0  0
 14 16  1  0  0  0
 16 17  1  0  0  0
 17 18  1  0  0  0
 18 19  1  0  0  0
 19 20  2  0  0  0
 20 21  1  0  0  0
 21 22  2  0  0  0
 22 23  1  0  0  0
 23 24  2  0  0  0
  4  5  1  0  0  0
  5  6  2  0  0  0
  6  7  1  0  0  0
  7  8  2  0  0  0
  8  9  1  0  0  0
  9 10  2  0  0  0
 10  1  1  0  0  0
 18 16  1  0  0  0
 24 19  1  0  0  0
 10  5  1  0  0  0
 14 15  1  0  0  0
M  END
> <minimizedAffinity>
-7.49684

> <CNNscore>
0.4514740705

> <CNNaffinity>
5.8343110085

> <CNN_VS>
2.6340401173

> <CNNaffinity_variance>
0.1503933519

$$$$
[H]c1c([H])c([H])c(C2([H])C([H])([H])[C@]2([H])N([H])C([H])([H])c2c([H])c([H])c(OC([H])([H])[H])c3c([H])c([H])c([H])c([H])c23)c([H])c1[H]


 24 27  0  0  0  0  0  0  0  0999 V2000
    1.6655  -49.8861  -21.9293 C   0  0  0  0  0  0  0  0  0  0  0  0
    2.8655  -49.6648  -22.5578 C   0  0  0  0  0  0  0  0  0  0  0  0
    3.4224  -50.5876  -23.4323 C   0  0  0  0  0  0  0  0  0  0  0  0
    2.7795  -51.7748  -23.7022 C   0  0  0  0  0  0  0  0  0  0  0  0
    1.5582  -52.0077  -23.0670 C   0  0  0  0  0  0  0  0  0  0  0  0
    0.9217  -53.2000  -23.3443 C   0  0  0  0  0  0  0  0  0  0  0  0
   -0.2891  -53.4160  -22.7061 C   0  0  0  0  0  0  0  0  0  0  0  0
   -0.8415  -52.5046  -21.8413 C   0  0  0  0  0  0  0  0  0  0  0  0
   -0.1944  -51.3179  -21.5738 C   0  0  0  0  0  0  0  0  0  0  0  0
    1.0283  -51.0790  -22.2064 C   0  0  0  0  0  0  0  0  0  0  0  0
    1.9415  -48.2561  -20.1347 C   0  0  0  0  0  0  0  0  0  0  0  0
    1.1104  -48.9508  -21.0491 O   0  0  0  0  0  0  0  0  0  0  0  0
    3.3418  -52.7831  -24.6402 C   0  0  0  0  0  0  0  0  0  0  0  0
    3.5968  -52.1581  -25.9005 N   0  0  0  0  0  0  0  0  0  0  0  0
    4.4318  -52.5572  -26.3972 H   0  0  0  0  0  0  0  0  0  0  0  0
    2.4480  -52.0820  -26.7612 C   0  0  0  0  0  0  0  0  0  0  0  0
    2.5835  -52.9485  -28.0187 C   0  0  0  0  0  0  0  0  0  0  0  0
    1.5355  -53.2113  -27.0031 C   0  0  0  0  0  0  0  0  0  0  0  0
    0.1256  -52.8816  -27.3188 C   0  0  0  0  0  0  0  0  0  0  0  0
   -0.7837  -52.4368  -26.3873 C   0  0  0  0  0  0  0  0  0  0  0  0
   -2.0801  -52.1389  -26.7037 C   0  0  0  0  0  0  0  0  0  0  0  0
   -2.5222  -52.2781  -27.9891 C   0  0  0  0  0  0  0  0  0  0  0  0
   -1.6350  -52.7219  -28.9461 C   0  0  0  0  0  0  0  0  0  0  0  0
   -0.3266  -53.0190  -28.6096 C   0  0  0  0  0  0  0  0  0  0  0  0
 11 12  1  0  0  0
 12  1  1  0  0  0
  1  2  2  0  0  0
  2  3  1  0  0  0
  3  4  2  0  0  0
  4 13  1  0  0  0
 13 14  1  0  0  0
 14 16  1  0  0  0
 16 17  1  0  0  0
 17 18  1  0  0  0
 18 19  1  0  0  0
 19 20  2  0  0  0
 20 21  1  0  0  0
 21 22  2  0  0  0
 22 23  1  0  0  0
 23 24  2  0  0  0
  4  5  1  0  0  0
  5  6  2  0  0  0
  6  7  1  0  0  0
  7  8  2  0  0  0
  8  9  1  0  0  0
  9 10  2  0  0  0
 10  1  1  0  0  0
 18 16  1  0  0  0
 24 19  1  0  0  0
 10  5  1  0  0  0
 14 15  1  0  0  0
M  END
> <minimizedAffinity>
-7.82638

> <CNNscore>
0.4354856312

> <CNNaffinity>
5.8034276962

> <CNN_VS>
2.5273094177

> <CNNaffinity_variance>
0.1625853181

$$$$
[H]c1c([H])c([H])c(C2([H])C([H])([H])[C@]2([H])N([H])C([H])([H])c2c([H])c([H])c(OC([H])([H])[H])c3c([H])c([H])c([H])c([H])c23)c([H])c1[H]


 24 27  0  0  0  0  0  0  0  0999 V2000
    1.5820  -49.1411  -20.2440 C   0  0  0  0  0  0  0  0  0  0  0  0
    1.9101  -49.2886  -21.5686 C   0  0  0  0  0  0  0  0  0  0  0  0
    1.6275  -50.4496  -22.2746 C   0  0  0  0  0  0  0  0  0  0  0  0
    0.9989  -51.5090  -21.6597 C   0  0  0  0  0  0  0  0  0  0  0  0
    0.6616  -51.3672  -20.3123 C   0  0  0  0  0  0  0  0  0  0  0  0
    0.0319  -52.4343  -19.7053 C   0  0  0  0  0  0  0  0  0  0  0  0
   -0.2962  -52.2777  -18.3683 C   0  0  0  0  0  0  0  0  0  0  0  0
   -0.0178  -51.1304  -17.6685 C   0  0  0  0  0  0  0  0  0  0  0  0
    0.6117  -50.0727  -18.2878 C   0  0  0  0  0  0  0  0  0  0  0  0
    0.9519  -50.2085  -19.6361 C   0  0  0  0  0  0  0  0  0  0  0  0
    3.2096  -47.5178  -19.4262 C   0  0  0  0  0  0  0  0  0  0  0  0
    1.8701  -47.9674  -19.5390 O   0  0  0  0  0  0  0  0  0  0  0  0
    0.6725  -52.7650  -22.3868 C   0  0  0  0  0  0  0  0  0  0  0  0
    1.4924  -52.8557  -23.5545 N   0  0  0  0  0  0  0  0  0  0  0  0
    2.3641  -53.4219  -23.4034 H   0  0  0  0  0  0  0  0  0  0  0  0
    0.7861  -53.2662  -24.7373 C   0  0  0  0  0  0  0  0  0  0  0  0
   -0.5428  -53.9656  -24.4287 C   0  0  0  0  0  0  0  0  0  0  0  0
   -0.4943  -52.6799  -25.1658 C   0  0  0  0  0  0  0  0  0  0  0  0
   -0.7769  -52.6708  -26.6205 C   0  0  0  0  0  0  0  0  0  0  0  0
    0.1833  -52.8555  -27.5882 C   0  0  0  0  0  0  0  0  0  0  0  0
   -0.1029  -52.8427  -28.9252 C   0  0  0  0  0  0  0  0  0  0  0  0
   -1.3856  -52.6409  -29.3506 C   0  0  0  0  0  0  0  0  0  0  0  0
   -2.3708  -52.4527  -28.4052 C   0  0  0  0  0  0  0  0  0  0  0  0
   -2.0648  -52.4684  -27.0563 C   0  0  0  0  0  0  0  0  0  0  0  0
 11 12  1  0  0  0
 12  1  1  0  0  0
  1  2  2  0  0  0
  2  3  1  0  0  0
  3  4  2  0  0  0
  4 13  1  0  0  0
 13 14  1  0  0  0
 14 16  1  0  0  0
 16 17  1  0  0  0
 17 18  1  0  0  0
 18 19  1  0  0  0
 19 20  2  0  0  0
 20 21  1  0  0  0
 21 22  2  0  0  0
 22 23  1  0  0  0
 23 24  2  0  0  0
  4  5  1  0  0  0
  5  6  2  0  0  0
  6  7  1  0  0  0
  7  8  2  0  0  0
  8  9  1  0  0  0
  9 10  2  0  0  0
 10  1  1  0  0  0
 18 16  1  0  0  0
 24 19  1  0  0  0
 10  5  1  0  0  0
 14 15  1  0  0  0
M  END
> <minimizedAffinity>
-7.54692

> <CNNscore>
0.3800877333

> <CNNaffinity>
5.6978502274

> <CNN_VS>
2.1656830311

> <CNNaffinity_variance>
0.1629817188

$$$$
[H]c1c([H])c([H])c(C2([H])C([H])([H])[C@]2([H])N([H])C([H])([H])c2c([H])c([H])c(OC([H])([H])[H])c3c([H])c([H])c([H])c([H])c23)c([H])c1[H]


 24 27  0  0  0  0  0  0  0  0999 V2000
    0.0331  -53.2529  -22.2257 C   0  0  0  0  0  0  0  0  0  0  0  0
   -0.4293  -53.5853  -20.9769 C   0  0  0  0  0  0  0  0  0  0  0  0
   -0.2367  -52.7635  -19.8751 C   0  0  0  0  0  0  0  0  0  0  0  0
    0.4356  -51.5686  -20.0003 C   0  0  0  0  0  0  0  0  0  0  0  0
    0.9093  -51.2228  -21.2674 C   0  0  0  0  0  0  0  0  0  0  0  0
    1.5814  -50.0234  -21.3825 C   0  0  0  0  0  0  0  0  0  0  0  0
    2.0449  -49.6948  -22.6462 C   0  0  0  0  0  0  0  0  0  0  0  0
    1.8553  -50.5060  -23.7369 C   0  0  0  0  0  0  0  0  0  0  0  0
    1.1821  -51.7011  -23.6070 C   0  0  0  0  0  0  0  0  0  0  0  0
    0.7058  -52.0528  -22.3415 C   0  0  0  0  0  0  0  0  0  0  0  0
   -1.1831  -55.0727  -23.3041 C   0  0  0  0  0  0  0  0  0  0  0  0
   -0.1651  -54.0866  -23.3317 O   0  0  0  0  0  0  0  0  0  0  0  0
    0.6531  -50.6587  -18.8439 C   0  0  0  0  0  0  0  0  0  0  0  0
    0.7224  -51.4347  -17.6451 N   0  0  0  0  0  0  0  0  0  0  0  0
    1.5506  -51.1942  -17.0455 H   0  0  0  0  0  0  0  0  0  0  0  0
   -0.4990  -51.4548  -16.8874 C   0  0  0  0  0  0  0  0  0  0  0  0
   -0.3044  -51.9542  -15.4509 C   0  0  0  0  0  0  0  0  0  0  0  0
   -0.7590  -50.5724  -15.7383 C   0  0  0  0  0  0  0  0  0  0  0  0
   -2.1713  -50.2079  -15.4757 C   0  0  0  0  0  0  0  0  0  0  0  0
   -2.5761  -48.9591  -15.0646 C   0  0  0  0  0  0  0  0  0  0  0  0
   -3.8863  -48.6473  -14.8288 C   0  0  0  0  0  0  0  0  0  0  0  0
   -4.8581  -49.5926  -14.9994 C   0  0  0  0  0  0  0  0  0  0  0  0
   -4.4847  -50.8540  -15.4108 C   0  0  0  0  0  0  0  0  0  0  0  0
   -3.1547  -51.1534  -15.6452 C   0  0  0  0  0  0  0  0  0  0  0  0
 11 12  1  0  0  0
 12  1  1  0  0  0
  1  2  2  0  0  0
  2  3  1  0  0  0
  3  4  2  0  0  0
  4 13  1  0  0  0
 13 14  1  0  0  0
 14 16  1  0  0  0
 16 17  1  0  0  0
 17 18  1  0  0  0
 18 19  1  0  0  0
 19 20  2  0  0  0
 20 21  1  0  0  0
 21 22  2  0  0  0
 22 23  1  0  0  0
 23 24  2  0  0  0
  4  5  1  0  0  0
  5  6  2  0  0  0
  6  7  1  0  0  0
  7  8  2  0  0  0
  8  9  1  0  0  0
  9 10  2  0  0  0
 10  1  1  0  0  0
 18 16  1  0  0  0
 24 19  1  0  0  0
 10  5  1  0  0  0
 14 15  1  0  0  0
M  END
> <minimizedAffinity>
-6.94149

> <CNNscore>
0.2022383958

> <CNNaffinity>
5.0568304062

> <CNN_VS>
1.0226852894

> <CNNaffinity_variance>
0.0868064389

$$$$
[H]c1c([H])c([H])c(C2([H])C([H])([H])[C@]2([H])N([H])C([H])([H])c2c([H])c([H])c(OC([H])([H])[H])c3c([H])c([H])c([H])c([H])c23)c([H])c1[H]


 24 27  0  0  0  0  0  0  0  0999 V2000
   -0.1682  -51.9250  -20.7078 C   0  0  0  0  0  0  0  0  0  0  0  0
   -0.0245  -52.0956  -22.0621 C   0  0  0  0  0  0  0  0  0  0  0  0
    0.8171  -51.2952  -22.8221 C   0  0  0  0  0  0  0  0  0  0  0  0
    1.5469  -50.2872  -22.2333 C   0  0  0  0  0  0  0  0  0  0  0  0
    1.4066  -50.1069  -20.8559 C   0  0  0  0  0  0  0  0  0  0  0  0
    2.1424  -49.0944  -20.2754 C   0  0  0  0  0  0  0  0  0  0  0  0
    1.9920  -48.9286  -18.9080 C   0  0  0  0  0  0  0  0  0  0  0  0
    1.1605  -49.7191  -18.1547 C   0  0  0  0  0  0  0  0  0  0  0  0
    0.4317  -50.7266  -18.7482 C   0  0  0  0  0  0  0  0  0  0  0  0
    0.5678  -50.9120  -20.1263 C   0  0  0  0  0  0  0  0  0  0  0  0
   -1.6421  -53.8624  -20.5415 C   0  0  0  0  0  0  0  0  0  0  0  0
   -1.0185  -52.7361  -19.9484 O   0  0  0  0  0  0  0  0  0  0  0  0
    2.4651  -49.4156  -23.0144 C   0  0  0  0  0  0  0  0  0  0  0  0
    3.1240  -50.2035  -24.0091 N   0  0  0  0  0  0  0  0  0  0  0  0
    3.5244  -51.0969  -23.6288 H   0  0  0  0  0  0  0  0  0  0  0  0
    2.3406  -50.4293  -25.1930 C   0  0  0  0  0  0  0  0  0  0  0  0
    3.1400  -50.2332  -26.4864 C   0  0  0  0  0  0  0  0  0  0  0  0
    2.5684  -51.5510  -26.1185 C   0  0  0  0  0  0  0  0  0  0  0  0
    1.3916  -52.0601  -26.8614 C   0  0  0  0  0  0  0  0  0  0  0  0
    1.4746  -52.7394  -28.0548 C   0  0  0  0  0  0  0  0  0  0  0  0
    0.3731  -53.1995  -28.7215 C   0  0  0  0  0  0  0  0  0  0  0  0
   -0.8761  -52.9924  -28.2079 C   0  0  0  0  0  0  0  0  0  0  0  0
   -0.9928  -52.3148  -27.0133 C   0  0  0  0  0  0  0  0  0  0  0  0
    0.1316  -51.8558  -26.3512 C   0  0  0  0  0  0  0  0  0  0  0  0
 11 12  1  0  0  0
 12  1  1  0  0  0
  1  2  2  0  0  0
  2  3  1  0  0  0
  3  4  2  0  0  0
  4 13  1  0  0  0
 13 14  1  0  0  0
 14 16  1  0  0  0
 16 17  1  0  0  0
 17 18  1  0  0  0
 18 19  1  0  0  0
 19 20  2  0  0  0
 20 21  1  0  0  0
 21 22  2  0  0  0
 22 23  1  0  0  0
 23 24  2  0  0  0
  4  5  1  0  0  0
  5  6  2  0  0  0
  6  7  1  0  0  0
  7  8  2  0  0  0
  8  9  1  0  0  0
  9 10  2  0  0  0
 10  1  1  0  0  0
 18 16  1  0  0  0
 24 19  1  0  0  0
 10  5  1  0  0  0
 14 15  1  0  0  0
M  END
> <minimizedAffinity>
-6.91117

> <CNNscore>
0.1995375752

> <CNNaffinity>
5.4602522850

> <CNN_VS>
1.0895254612

> <CNNaffinity_variance>
0.2131637037

$$$$
[H]c1c([H])c([H])c(C2([H])C([H])([H])[C@]2([H])N([H])C([H])([H])c2c([H])c([H])c(OC([H])([H])[H])c3c([H])c([H])c([H])c([H])c23)c([H])c1[H]


 24 27  0  0  0  0  0  0  0  0999 V2000
    0.2121  -52.1887  -24.0198 C   0  0  0  0  0  0  0  0  0  0  0  0
    1.1869  -51.2704  -24.3204 C   0  0  0  0  0  0  0  0  0  0  0  0
    2.1471  -50.8833  -23.3962 C   0  0  0  0  0  0  0  0  0  0  0  0
    2.1535  -51.4157  -22.1265 C   0  0  0  0  0  0  0  0  0  0  0  0
    1.1653  -52.3507  -21.8125 C   0  0  0  0  0  0  0  0  0  0  0  0
    1.1804  -52.8786  -20.5378 C   0  0  0  0  0  0  0  0  0  0  0  0
    0.1934  -53.8050  -20.2421 C   0  0  0  0  0  0  0  0  0  0  0  0
   -0.7569  -54.1892  -21.1547 C   0  0  0  0  0  0  0  0  0  0  0  0
   -0.7597  -53.6535  -22.4242 C   0  0  0  0  0  0  0  0  0  0  0  0
    0.2267  -52.7173  -22.7445 C   0  0  0  0  0  0  0  0  0  0  0  0
   -0.3581  -52.9715  -26.2594 C   0  0  0  0  0  0  0  0  0  0  0  0
   -0.7526  -52.5741  -24.9572 O   0  0  0  0  0  0  0  0  0  0  0  0
    3.1719  -51.0312  -21.1128 C   0  0  0  0  0  0  0  0  0  0  0  0
    2.8557  -49.7341  -20.6013 N   0  0  0  0  0  0  0  0  0  0  0  0
    1.9969  -49.3164  -21.0387 H   0  0  0  0  0  0  0  0  0  0  0  0
    2.8136  -49.6633  -19.1662 C   0  0  0  0  0  0  0  0  0  0  0  0
    1.6098  -48.8726  -18.6406 C   0  0  0  0  0  0  0  0  0  0  0  0
    1.7785  -50.3165  -18.3486 C   0  0  0  0  0  0  0  0  0  0  0  0
    2.1663  -50.7358  -16.9811 C   0  0  0  0  0  0  0  0  0  0  0  0
    3.4617  -50.9964  -16.5986 C   0  0  0  0  0  0  0  0  0  0  0  0
    3.7943  -51.3822  -15.3297 C   0  0  0  0  0  0  0  0  0  0  0  0
    2.8232  -51.5238  -14.3788 C   0  0  0  0  0  0  0  0  0  0  0  0
    1.5150  -51.2700  -14.7308 C   0  0  0  0  0  0  0  0  0  0  0  0
    1.1952  -50.8805  -16.0190 C   0  0  0  0  0  0  0  0  0  0  0  0
 11 12  1  0  0  0
 12  1  1  0  0  0
  1  2  2  0  0  0
  2  3  1  0  0  0
  3  4  2  0  0  0
  4 13  1  0  0  0
 13 14  1  0  0  0
 14 16  1  0  0  0
 16 17  1  0  0  0
 17 18  1  0  0  0
 18 19  1  0  0  0
 19 20  2  0  0  0
 20 21  1  0  0  0
 21 22  2  0  0  0
 22 23  1  0  0  0
 23 24  2  0  0  0
  4  5  1  0  0  0
  5  6  2  0  0  0
  6  7  1  0  0  0
  7  8  2  0  0  0
  8  9  1  0  0  0
  9 10  2  0  0  0
 10  1  1  0  0  0
 18 16  1  0  0  0
 24 19  1  0  0  0
 10  5  1  0  0  0
 14 15  1  0  0  0
M  END
> <minimizedAffinity>
-6.14077

> <CNNscore>
0.1978242546

> <CNNaffinity>
5.0571289062

> <CNN_VS>
1.0004227161

> <CNNaffinity_variance>
0.1557888836

$$$$
[H]c1c([H])c([H])c(C2([H])C([H])([H])[C@]2([H])N([H])C([H])([H])c2c([H])c([H])c(OC([H])([H])[H])c3c([H])c([H])c([H])c([H])c23)c([H])c1[H]


 24 27  0  0  0  0  0  0  0  0999 V2000
   -0.2537  -52.1512  -18.9561 C   0  0  0  0  0  0  0  0  0  0  0  0
    0.4846  -51.0007  -18.8331 C   0  0  0  0  0  0  0  0  0  0  0  0
    1.0424  -50.3602  -19.9308 C   0  0  0  0  0  0  0  0  0  0  0  0
    0.8714  -50.8662  -21.1998 C   0  0  0  0  0  0  0  0  0  0  0  0
    0.1216  -52.0363  -21.3338 C   0  0  0  0  0  0  0  0  0  0  0  0
   -0.0443  -52.5351  -22.6094 C   0  0  0  0  0  0  0  0  0  0  0  0
   -0.7908  -53.6966  -22.7254 C   0  0  0  0  0  0  0  0  0  0  0  0
   -1.3435  -54.3312  -21.6412 C   0  0  0  0  0  0  0  0  0  0  0  0
   -1.1695  -53.8216  -20.3729 C   0  0  0  0  0  0  0  0  0  0  0  0
   -0.4200  -52.6508  -20.2323 C   0  0  0  0  0  0  0  0  0  0  0  0
   -0.8387  -52.1370  -16.5873 C   0  0  0  0  0  0  0  0  0  0  0  0
   -0.8131  -52.7910  -17.8446 O   0  0  0  0  0  0  0  0  0  0  0  0
    1.4470  -50.2023  -22.4000 C   0  0  0  0  0  0  0  0  0  0  0  0
    2.7639  -50.7100  -22.6286 N   0  0  0  0  0  0  0  0  0  0  0  0
    3.0855  -51.3737  -21.8807 H   0  0  0  0  0  0  0  0  0  0  0  0
    2.9644  -51.2500  -23.9456 C   0  0  0  0  0  0  0  0  0  0  0  0
    4.1320  -52.2412  -24.0150 C   0  0  0  0  0  0  0  0  0  0  0  0
    2.7373  -52.6631  -24.2895 C   0  0  0  0  0  0  0  0  0  0  0  0
    2.3343  -52.9598  -25.6844 C   0  0  0  0  0  0  0  0  0  0  0  0
    3.1318  -52.7197  -26.7793 C   0  0  0  0  0  0  0  0  0  0  0  0
    2.7369  -53.0024  -28.0575 C   0  0  0  0  0  0  0  0  0  0  0  0
    1.5054  -53.5465  -28.2908 C   0  0  0  0  0  0  0  0  0  0  0  0
    0.6825  -53.7990  -27.2143 C   0  0  0  0  0  0  0  0  0  0  0  0
    1.0969  -53.5072  -25.9273 C   0  0  0  0  0  0  0  0  0  0  0  0
 11 12  1  0  0  0
 12  1  1  0  0  0
  1  2  2  0  0  0
  2  3  1  0  0  0
  3  4  2  0  0  0
  4 13  1  0  0  0
 13 14  1  0  0  0
 14 16  1  0  0  0
 16 17  1  0  0  0
 17 18  1  0  0  0
 18 19  1  0  0  0
 19 20  2  0  0  0
 20 21  1  0  0  0
 21 22  2  0  0  0
 22 23  1  0  0  0
 23 24  2  0  0  0
  4  5  1  0  0  0
  5  6  2  0  0  0
  6  7  1  0  0  0
  7  8  2  0  0  0
  8  9  1  0  0  0
  9 10  2  0  0  0
 10  1  1  0  0  0
 18 16  1  0  0  0
 24 19  1  0  0  0
 10  5  1  0  0  0
 14 15  1  0  0  0
M  END
> <minimizedAffinity>
-7.70023

> <CNNscore>
0.1935810298

> <CNNaffinity>
5.3378982544

> <CNN_VS>
1.0333158970

> <CNNaffinity_variance>
0.2248588800

$$$$
[H]c1nc([H])c([C@@]2([H])N(C([H])([H])[H])C([H])([H])C([H])([H])C2([H])[H])c([H])c1[H]


 12 13  0  0  0  0  0  0  0  0999 V2000
   -1.6022  -52.2313  -25.8822 C   0  0  0  0  0  0  0  0  0  0  0  0
   -0.7595  -53.2278  -26.3794 N   0  0  0  0  0  0  0  0  0  0  0  0
   -0.0800  -53.0137  -27.5933 C   0  0  0  0  0  0  0  0  0  0  0  0
    1.3788  -53.1601  -27.2108 C   0  0  0  0  0  0  0  0  0  0  0  0
    1.4016  -53.3682  -25.6918 C   0  0  0  0  0  0  0  0  0  0  0  0
    0.0178  -53.9898  -25.4897 C   0  0  0  0  0  0  0  0  0  0  0  0
   -0.3761  -54.0277  -24.0934 C   0  0  0  0  0  0  0  0  0  0  0  0
    0.0980  -53.0812  -23.2110 C   0  0  0  0  0  0  0  0  0  0  0  0
   -0.2764  -53.1134  -21.8594 C   0  0  0  0  0  0  0  0  0  0  0  0
   -1.1265  -54.1094  -21.4334 C   0  0  0  0  0  0  0  0  0  0  0  0
   -1.5671  -55.0056  -22.3011 N   0  0  0  0  0  0  0  0  0  0  0  0
   -1.2212  -54.9939  -23.6015 C   0  0  0  0  0  0  0  0  0  0  0  0
  1  2  1  0  0  0
  2  3  1  0  0  0
  3  4  1  0  0  0
  4  5  1  0  0  0
  5  6  1  0  0  0
  6  7  1  0  0  0
  7  8  2  0  0  0
  8  9  1  0  0  0
  9 10  2  0  0  0
 10 11  1  0  0  0
 11 12  2  0  0  0
  6  2  1  0  0  0
 12  7  1  0  0  0
M  END
> <minimizedAffinity>
-5.52519

> <CNNscore>
0.7652556896

> <CNNaffinity>
4.6399497986

> <CNN_VS>
3.5507478714

> <CNNaffinity_variance>
0.2251005620

$$$$
[H]c1nc([H])c([C@@]2([H])N(C([H])([H])[H])C([H])([H])C([H])([H])C2([H])[H])c([H])c1[H]


 12 13  0  0  0  0  0  0  0  0999 V2000
    1.8637  -51.0358  -25.4915 C   0  0  0  0  0  0  0  0  0  0  0  0
    1.6380  -52.2428  -24.8263 N   0  0  0  0  0  0  0  0  0  0  0  0
    1.6832  -52.2739  -23.4199 C   0  0  0  0  0  0  0  0  0  0  0  0
    0.3104  -52.7866  -23.0347 C   0  0  0  0  0  0  0  0  0  0  0  0
   -0.4757  -52.9232  -24.3441 C   0  0  0  0  0  0  0  0  0  0  0  0
    0.6793  -53.1429  -25.3238 C   0  0  0  0  0  0  0  0  0  0  0  0
    0.2666  -53.0101  -26.7087 C   0  0  0  0  0  0  0  0  0  0  0  0
   -1.0094  -52.5903  -27.0170 C   0  0  0  0  0  0  0  0  0  0  0  0
   -1.4159  -52.4624  -28.3536 C   0  0  0  0  0  0  0  0  0  0  0  0
   -0.5146  -52.7646  -29.3497 C   0  0  0  0  0  0  0  0  0  0  0  0
    0.7040  -53.1653  -29.0264 N   0  0  0  0  0  0  0  0  0  0  0  0
    1.1155  -53.2952  -27.7517 C   0  0  0  0  0  0  0  0  0  0  0  0
  1  2  1  0  0  0
  2  3  1  0  0  0
  3  4  1  0  0  0
  4  5  1  0  0  0
  5  6  1  0  0  0
  6  7  1  0  0  0
  7  8  2  0  0  0
  8  9  1  0  0  0
  9 10  2  0  0  0
 10 11  1  0  0  0
 11 12  2  0  0  0
  6  2  1  0  0  0
 12  7  1  0  0  0
M  END
> <minimizedAffinity>
-5.05776

> <CNNscore>
0.6281137466

> <CNNaffinity>
4.5851016045

> <CNN_VS>
2.8799653053

> <CNNaffinity_variance>
0.2271883190

$$$$
[H]c1nc([H])c([C@@]2([H])N(C([H])([H])[H])C([H])([H])C([H])([H])C2([H])[H])c([H])c1[H]


 12 13  0  0  0  0  0  0  0  0999 V2000
   -0.4538  -54.2471  -24.6897 C   0  0  0  0  0  0  0  0  0  0  0  0
   -0.5484  -52.9108  -24.2954 N   0  0  0  0  0  0  0  0  0  0  0  0
   -0.1554  -52.5464  -22.9939 C   0  0  0  0  0  0  0  0  0  0  0  0
    0.9280  -51.5136  -23.2294 C   0  0  0  0  0  0  0  0  0  0  0  0
    1.1294  -51.4469  -24.7480 C   0  0  0  0  0  0  0  0  0  0  0  0
   -0.2577  -51.8907  -25.2181 C   0  0  0  0  0  0  0  0  0  0  0  0
   -0.2880  -52.2153  -26.6322 C   0  0  0  0  0  0  0  0  0  0  0  0
   -1.4919  -52.3558  -27.2880 C   0  0  0  0  0  0  0  0  0  0  0  0
   -1.5287  -52.6722  -28.6542 C   0  0  0  0  0  0  0  0  0  0  0  0
   -0.3380  -52.8394  -29.3255 C   0  0  0  0  0  0  0  0  0  0  0  0
    0.8037  -52.6988  -28.6722 N   0  0  0  0  0  0  0  0  0  0  0  0
    0.8627  -52.3957  -27.3625 C   0  0  0  0  0  0  0  0  0  0  0  0
  1  2  1  0  0  0
  2  3  1  0  0  0
  3  4  1  0  0  0
  4  5  1  0  0  0
  5  6  1  0  0  0
  6  7  1  0  0  0
  7  8  2  0  0  0
  8  9  1  0  0  0
  9 10  2  0  0  0
 10 11  1  0  0  0
 11 12  2  0  0  0
  6  2  1  0  0  0
 12  7  1  0  0  0
M  END
> <minimizedAffinity>
-5.53657

> <CNNscore>
0.6262231469

> <CNNaffinity>
4.6511635780

> <CNN_VS>
2.9126663208

> <CNNaffinity_variance>
0.1879903972

$$$$
[H]c1nc([H])c([C@@]2([H])N(C([H])([H])[H])C([H])([H])C([H])([H])C2([H])[H])c([H])c1[H]


 12 13  0  0  0  0  0  0  0  0999 V2000
   -0.5166  -53.9942  -24.4266 C   0  0  0  0  0  0  0  0  0  0  0  0
   -0.2214  -52.6550  -24.1628 N   0  0  0  0  0  0  0  0  0  0  0  0
    0.7777  -52.3414  -23.2223 C   0  0  0  0  0  0  0  0  0  0  0  0
    1.7671  -51.5174  -24.0210 C   0  0  0  0  0  0  0  0  0  0  0  0
    1.2504  -51.5139  -25.4647 C   0  0  0  0  0  0  0  0  0  0  0  0
   -0.2449  -51.7177  -25.2105 C   0  0  0  0  0  0  0  0  0  0  0  0
   -0.9731  -52.0572  -26.4189 C   0  0  0  0  0  0  0  0  0  0  0  0
   -0.2956  -52.4627  -27.5485 C   0  0  0  0  0  0  0  0  0  0  0  0
   -0.9929  -52.7897  -28.7210 C   0  0  0  0  0  0  0  0  0  0  0  0
   -2.3668  -52.6971  -28.7197 C   0  0  0  0  0  0  0  0  0  0  0  0
   -2.9926  -52.3053  -27.6220 N   0  0  0  0  0  0  0  0  0  0  0  0
   -2.3443  -51.9869  -26.4865 C   0  0  0  0  0  0  0  0  0  0  0  0
  1  2  1  0  0  0
  2  3  1  0  0  0
  3  4  1  0  0  0
  4  5  1  0  0  0
  5  6  1  0  0  0
  6  7  1  0  0  0
  7  8  2  0  0  0
  8  9  1  0  0  0
  9 10  2  0  0  0
 10 11  1  0  0  0
 11 12  2  0  0  0
  6  2  1  0  0  0
 12  7  1  0  0  0
M  END
> <minimizedAffinity>
-5.43978

> <CNNscore>
0.4656252861

> <CNNaffinity>
4.4086751938

> <CNN_VS>
2.0527906418

> <CNNaffinity_variance>
0.3247645199

$$$$
[H]c1nc([H])c([C@@]2([H])N(C([H])([H])[H])C([H])([H])C([H])([H])C2([H])[H])c([H])c1[H]


 12 13  0  0  0  0  0  0  0  0999 V2000
    2.5028  -50.5904  -26.5675 C   0  0  0  0  0  0  0  0  0  0  0  0
    2.9467  -51.8393  -26.1277 N   0  0  0  0  0  0  0  0  0  0  0  0
    3.8673  -51.9089  -25.0653 C   0  0  0  0  0  0  0  0  0  0  0  0
    3.1475  -52.7489  -24.0300 C   0  0  0  0  0  0  0  0  0  0  0  0
    1.7509  -53.0229  -24.6006 C   0  0  0  0  0  0  0  0  0  0  0  0
    2.0533  -52.9244  -26.0976 C   0  0  0  0  0  0  0  0  0  0  0  0
    0.8494  -52.8449  -26.9040 C   0  0  0  0  0  0  0  0  0  0  0  0
    0.9235  -52.9463  -28.2764 C   0  0  0  0  0  0  0  0  0  0  0  0
   -0.2359  -52.8674  -29.0623 C   0  0  0  0  0  0  0  0  0  0  0  0
   -1.4481  -52.6867  -28.4344 C   0  0  0  0  0  0  0  0  0  0  0  0
   -1.4913  -52.5924  -27.1156 N   0  0  0  0  0  0  0  0  0  0  0  0
   -0.3924  -52.6652  -26.3422 C   0  0  0  0  0  0  0  0  0  0  0  0
  1  2  1  0  0  0
  2  3  1  0  0  0
  3  4  1  0  0  0
  4  5  1  0  0  0
  5  6  1  0  0  0
  6  7  1  0  0  0
  7  8  2  0  0  0
  8  9  1  0  0  0
  9 10  2  0  0  0
 10 11  1  0  0  0
 11 12  2  0  0  0
  6  2  1  0  0  0
 12  7  1  0  0  0
M  END
> <minimizedAffinity>
-4.74312

> <CNNscore>
0.4008558691

> <CNNaffinity>
4.2150282860

> <CNN_VS>
1.6896188259

> <CNNaffinity_variance>
0.3696907163

$$$$
[H]c1nc([H])c([C@@]2([H])N(C([H])([H])[H])C([H])([H])C([H])([H])C2([H])[H])c([H])c1[H]


 12 13  0  0  0  0  0  0  0  0999 V2000
   -2.4021  -51.8531  -26.5607 C   0  0  0  0  0  0  0  0  0  0  0  0
   -1.6925  -52.8326  -27.2588 N   0  0  0  0  0  0  0  0  0  0  0  0
   -1.7027  -52.8200  -28.6662 C   0  0  0  0  0  0  0  0  0  0  0  0
   -0.2356  -52.7088  -29.0282 C   0  0  0  0  0  0  0  0  0  0  0  0
    0.5203  -52.5667  -27.7017 C   0  0  0  0  0  0  0  0  0  0  0  0
   -0.4554  -53.2813  -26.7639 C   0  0  0  0  0  0  0  0  0  0  0  0
   -0.1515  -53.0497  -25.3639 C   0  0  0  0  0  0  0  0  0  0  0  0
    0.5780  -51.9438  -24.9842 C   0  0  0  0  0  0  0  0  0  0  0  0
    0.8779  -51.7152  -23.6330 C   0  0  0  0  0  0  0  0  0  0  0  0
    0.4287  -52.6179  -22.6951 C   0  0  0  0  0  0  0  0  0  0  0  0
   -0.2696  -53.6711  -23.0864 N   0  0  0  0  0  0  0  0  0  0  0  0
   -0.5688  -53.9103  -24.3764 C   0  0  0  0  0  0  0  0  0  0  0  0
  1  2  1  0  0  0
  2  3  1  0  0  0
  3  4  1  0  0  0
  4  5  1  0  0  0
  5  6  1  0  0  0
  6  7  1  0  0  0
  7  8  2  0  0  0
  8  9  1  0  0  0
  9 10  2  0  0  0
 10 11  1  0  0  0
 11 12  2  0  0  0
  6  2  1  0  0  0
 12  7  1  0  0  0
M  END
> <minimizedAffinity>
-5.34916

> <CNNscore>
0.4003158808

> <CNNaffinity>
4.4403357506

> <CNN_VS>
1.7775368690

> <CNNaffinity_variance>
0.1618815362

$$$$
[H]c1nc([H])c([C@@]2([H])N(C([H])([H])[H])C([H])([H])C([H])([H])C2([H])[H])c([H])c1[H]


 12 13  0  0  0  0  0  0  0  0999 V2000
    1.4314  -53.8222  -28.5262 C   0  0  0  0  0  0  0  0  0  0  0  0
    0.5683  -52.7246  -28.5495 N   0  0  0  0  0  0  0  0  0  0  0  0
   -0.5654  -52.7566  -29.3831 C   0  0  0  0  0  0  0  0  0  0  0  0
   -1.7175  -52.5625  -28.4183 C   0  0  0  0  0  0  0  0  0  0  0  0
   -1.0972  -52.5266  -27.0165 C   0  0  0  0  0  0  0  0  0  0  0  0
    0.3054  -52.0206  -27.3613 C   0  0  0  0  0  0  0  0  0  0  0  0
    1.2359  -52.1660  -26.2572 C   0  0  0  0  0  0  0  0  0  0  0  0
    2.4912  -51.6013  -26.3266 C   0  0  0  0  0  0  0  0  0  0  0  0
    3.3968  -51.7403  -25.2642 C   0  0  0  0  0  0  0  0  0  0  0  0
    3.0057  -52.4519  -24.1521 C   0  0  0  0  0  0  0  0  0  0  0  0
    1.7951  -52.9838  -24.1111 N   0  0  0  0  0  0  0  0  0  0  0  0
    0.9105  -52.8632  -25.1180 C   0  0  0  0  0  0  0  0  0  0  0  0
  1  2  1  0  0  0
  2  3  1  0  0  0
  3  4  1  0  0  0
  4  5  1  0  0  0
  5  6  1  0  0  0
  6  7  1  0  0  0
  7  8  2  0  0  0
  8  9  1  0  0  0
  9 10  2  0  0  0
 10 11  1  0  0  0
 11 12  2  0  0  0
  6  2  1  0  0  0
 12  7  1  0  0  0
M  END
> <minimizedAffinity>
-4.79715

> <CNNscore>
0.3854073584

> <CNNaffinity>
4.3136892319

> <CNN_VS>
1.6625275612

> <CNNaffinity_variance>
0.3171568513

$$$$
[H]c1nc([H])c([C@@]2([H])N(C([H])([H])[H])C([H])([H])C([H])([H])C2([H])[H])c([H])c1[H]


 12 13  0  0  0  0  0  0  0  0999 V2000
    1.0096  -49.5846  -21.3553 C   0  0  0  0  0  0  0  0  0  0  0  0
    2.1878  -50.3120  -21.5367 N   0  0  0  0  0  0  0  0  0  0  0  0
    3.4233  -49.7108  -21.2313 C   0  0  0  0  0  0  0  0  0  0  0  0
    4.0176  -50.6368  -20.1896 C   0  0  0  0  0  0  0  0  0  0  0  0
    2.9525  -51.7043  -19.9120 C   0  0  0  0  0  0  0  0  0  0  0  0
    2.2075  -51.6880  -21.2487 C   0  0  0  0  0  0  0  0  0  0  0  0
    0.9415  -52.3947  -21.1883 C   0  0  0  0  0  0  0  0  0  0  0  0
    0.3250  -52.6149  -19.9755 C   0  0  0  0  0  0  0  0  0  0  0  0
   -0.8975  -53.2999  -19.9095 C   0  0  0  0  0  0  0  0  0  0  0  0
   -1.4679  -53.7471  -21.0803 C   0  0  0  0  0  0  0  0  0  0  0  0
   -0.8551  -53.5225  -22.2311 N   0  0  0  0  0  0  0  0  0  0  0  0
    0.3174  -52.8680  -22.3181 C   0  0  0  0  0  0  0  0  0  0  0  0
  1  2  1  0  0  0
  2  3  1  0  0  0
  3  4  1  0  0  0
  4  5  1  0  0  0
  5  6  1  0  0  0
  6  7  1  0  0  0
  7  8  2  0  0  0
  8  9  1  0  0  0
  9 10  2  0  0  0
 10 11  1  0  0  0
 11 12  2  0  0  0
  6  2  1  0  0  0
 12  7  1  0  0  0
M  END
> <minimizedAffinity>
-4.03693

> <CNNscore>
0.3667594790

> <CNNaffinity>
3.9257640839

> <CNN_VS>
1.4398112297

> <CNNaffinity_variance>
0.0873991773

$$$$
[H]c1nc([H])c([C@@]2([H])N(C([H])([H])[H])C([H])([H])C([H])([H])C2([H])[H])c([H])c1[H]


 12 13  0  0  0  0  0  0  0  0999 V2000
    0.5645  -54.0319  -27.6632 C   0  0  0  0  0  0  0  0  0  0  0  0
   -0.1428  -52.8587  -27.9342 N   0  0  0  0  0  0  0  0  0  0  0  0
   -1.0473  -52.8324  -29.0123 C   0  0  0  0  0  0  0  0  0  0  0  0
   -2.3640  -52.4652  -28.3585 C   0  0  0  0  0  0  0  0  0  0  0  0
   -2.0875  -52.4010  -26.8516 C   0  0  0  0  0  0  0  0  0  0  0  0
   -0.5961  -52.0580  -26.8712 C   0  0  0  0  0  0  0  0  0  0  0  0
    0.0295  -52.2233  -25.5722 C   0  0  0  0  0  0  0  0  0  0  0  0
   -0.5164  -53.0805  -24.6413 C   0  0  0  0  0  0  0  0  0  0  0  0
    0.0815  -53.2430  -23.3827 C   0  0  0  0  0  0  0  0  0  0  0  0
    1.2237  -52.5288  -23.0971 C   0  0  0  0  0  0  0  0  0  0  0  0
    1.7270  -51.7128  -24.0086 N   0  0  0  0  0  0  0  0  0  0  0  0
    1.1705  -51.5414  -25.2218 C   0  0  0  0  0  0  0  0  0  0  0  0
  1  2  1  0  0  0
  2  3  1  0  0  0
  3  4  1  0  0  0
  4  5  1  0  0  0
  5  6  1  0  0  0
  6  7  1  0  0  0
  7  8  2  0  0  0
  8  9  1  0  0  0
  9 10  2  0  0  0
 10 11  1  0  0  0
 11 12  2  0  0  0
  6  2  1  0  0  0
 12  7  1  0  0  0
M  END
> <minimizedAffinity>
-5.15709

> <CNNscore>
0.3236956298

> <CNNaffinity>
4.3908286095

> <CNN_VS>
1.4212920666

> <CNNaffinity_variance>
0.1749615222

$$$$
[H]c1nc([H])c(N([H])C(=O)c2nc(-c3c(F)c([H])c([H])c([H])c3F)c([H])c([H])c2F)c([C@@]2([H])C([H])([H])[C@@]([H])(N([H])[H])C([H])([H])[C@@]([H])(C([H])([H])[H])C2([H])[H])c1[H]


 35 38  0  0  0  0  0  0  0  0999 V2000
    1.1722  -51.9126  -22.0480 N   0  0  0  0  0  0  0  0  0  0  0  0
    0.7785  -50.6663  -21.5504 C   0  0  0  0  0  0  0  0  0  0  0  0
   -0.4704  -50.4770  -21.2506 O   0  0  0  0  0  0  0  0  0  0  0  0
    2.1831  -52.0532  -22.2746 H   0  0  0  0  0  0  0  0  0  0  0  0
    1.6026  -49.4963  -21.2949 C   0  0  0  0  0  0  0  0  0  0  0  0
    2.2084  -48.8812  -22.3267 N   0  0  0  0  0  0  0  0  0  0  0  0
    2.9926  -47.8027  -22.2727 C   0  0  0  0  0  0  0  0  0  0  0  0
    3.2079  -47.2625  -20.9962 C   0  0  0  0  0  0  0  0  0  0  0  0
    2.6224  -47.8396  -19.8885 C   0  0  0  0  0  0  0  0  0  0  0  0
    1.8193  -48.9625  -20.0641 C   0  0  0  0  0  0  0  0  0  0  0  0
    1.2534  -49.5124  -18.9239 F   0  0  0  0  0  0  0  0  0  0  0  0
    3.5782  -47.1457  -23.4214 C   0  0  0  0  0  0  0  0  0  0  0  0
    2.9707  -46.0570  -24.0299 C   0  0  0  0  0  0  0  0  0  0  0  0
    1.7667  -45.5951  -23.5779 F   0  0  0  0  0  0  0  0  0  0  0  0
    3.5178  -45.3949  -25.1038 C   0  0  0  0  0  0  0  0  0  0  0  0
    4.7134  -45.7949  -25.6249 C   0  0  0  0  0  0  0  0  0  0  0  0
    5.3515  -46.8892  -25.0382 C   0  0  0  0  0  0  0  0  0  0  0  0
    4.7777  -47.5325  -23.9630 C   0  0  0  0  0  0  0  0  0  0  0  0
    5.4015  -48.6112  -23.3798 F   0  0  0  0  0  0  0  0  0  0  0  0
    0.0616  -53.3765  -23.5422 C   0  0  0  0  0  0  0  0  0  0  0  0
   -0.7977  -54.4711  -23.6889 C   0  0  0  0  0  0  0  0  0  0  0  0
   -1.4296  -55.0665  -22.6102 C   0  0  0  0  0  0  0  0  0  0  0  0
   -1.2380  -54.6113  -21.3792 N   0  0  0  0  0  0  0  0  0  0  0  0
   -0.4096  -53.5558  -21.2086 C   0  0  0  0  0  0  0  0  0  0  0  0
    0.2331  -52.9459  -22.2287 C   0  0  0  0  0  0  0  0  0  0  0  0
   -1.3948  -52.7062  -27.9887 C   0  0  0  0  0  0  0  0  0  0  0  0
   -0.2982  -52.1258  -27.0306 C   0  0  0  0  0  0  0  0  0  0  0  0
    1.0497  -52.5656  -27.6103 C   0  0  0  0  0  0  0  0  0  0  0  0
    2.0864  -52.3166  -26.5833 C   0  0  0  0  0  0  0  0  0  0  0  0
    3.4022  -52.5451  -27.0602 N   0  0  0  0  0  0  0  0  0  0  0  0
    1.8327  -53.1846  -25.3210 C   0  0  0  0  0  0  0  0  0  0  0  0
    0.5906  -52.6111  -24.6460 C   0  0  0  0  0  0  0  0  0  0  0  0
   -0.5209  -52.8153  -25.7532 C   0  0  0  0  0  0  0  0  0  0  0  0
    4.1531  -52.3431  -26.3479 H   0  0  0  0  0  0  0  0  0  0  0  0
    3.6388  -52.1928  -27.9957 H   0  0  0  0  0  0  0  0  0  0  0  0
 26 27  1  0  0  0
 27 28  1  0  0  0
 28 29  1  0  0  0
 29 30  1  0  0  0
 29 31  1  0  0  0
 31 32  1  0  0  0
 32 20  1  0  0  0
 20 21  2  0  0  0
 21 22  1  0  0  0
 22 23  2  0  0  0
 23 24  1  0  0  0
 24 25  2  0  0  0
 25  1  1  0  0  0
  1  2  1  0  0  0
  2  3  2  0  0  0
  2  5  1  0  0  0
  5  6  2  0  0  0
  6  7  1  0  0  0
  7 12  1  0  0  0
 12 13  2  0  0  0
 13 14  1  0  0  0
 13 15  1  0  0  0
 15 16  2  0  0  0
 16 17  1  0  0  0
 17 18  2  0  0  0
 18 19  1  0  0  0
  7  8  2  0  0  0
  8  9  1  0  0  0
  9 10  2  0  0  0
 10 11  1  0  0  0
 32 33  1  0  0  0
 33 27  1  0  0  0
 25 20  1  0  0  0
 10  5  1  0  0  0
 18 12  1  0  0  0
 30 34  1  0  0  0
 30 35  1  0  0  0
  1  4  1  0  0  0
M  END
> <minimizedAffinity>
-8.77766

> <CNNscore>
0.6765192747

> <CNNaffinity>
7.5705566406

> <CNN_VS>
5.1216273308

> <CNNaffinity_variance>
0.2255060226

$$$$
[H]c1nc([H])c(N([H])C(=O)c2nc(-c3c(F)c([H])c([H])c([H])c3F)c([H])c([H])c2F)c([C@@]2([H])C([H])([H])[C@@]([H])(N([H])[H])C([H])([H])[C@@]([H])(C([H])([H])[H])C2([H])[H])c1[H]


 35 38  0  0  0  0  0  0  0  0999 V2000
   -0.2216  -51.4541  -21.2912 N   0  0  0  0  0  0  0  0  0  0  0  0
    0.8155  -51.4531  -20.3529 C   0  0  0  0  0  0  0  0  0  0  0  0
    1.3198  -52.5881  -19.9747 O   0  0  0  0  0  0  0  0  0  0  0  0
   -0.6101  -50.5319  -21.5939 H   0  0  0  0  0  0  0  0  0  0  0  0
    1.4529  -50.3131  -19.7148 C   0  0  0  0  0  0  0  0  0  0  0  0
    1.6696  -50.3395  -18.3872 N   0  0  0  0  0  0  0  0  0  0  0  0
    2.2397  -49.3876  -17.6457 C   0  0  0  0  0  0  0  0  0  0  0  0
    2.6487  -48.2352  -18.3331 C   0  0  0  0  0  0  0  0  0  0  0  0
    2.4578  -48.1331  -19.6955 C   0  0  0  0  0  0  0  0  0  0  0  0
    1.8541  -49.1912  -20.3683 C   0  0  0  0  0  0  0  0  0  0  0  0
    1.6786  -49.0453  -21.7360 F   0  0  0  0  0  0  0  0  0  0  0  0
    2.4994  -49.4876  -16.2256 C   0  0  0  0  0  0  0  0  0  0  0  0
    1.7967  -48.7318  -15.2985 C   0  0  0  0  0  0  0  0  0  0  0  0
    0.8549  -47.8318  -15.7114 F   0  0  0  0  0  0  0  0  0  0  0  0
    2.0013  -48.8268  -13.9421 C   0  0  0  0  0  0  0  0  0  0  0  0
    2.9290  -49.6939  -13.4433 C   0  0  0  0  0  0  0  0  0  0  0  0
    3.6563  -50.4686  -14.3486 C   0  0  0  0  0  0  0  0  0  0  0  0
    3.4287  -50.3504  -15.7025 C   0  0  0  0  0  0  0  0  0  0  0  0
    4.1416  -51.1114  -16.6001 F   0  0  0  0  0  0  0  0  0  0  0  0
   -0.2690  -52.9916  -23.0919 C   0  0  0  0  0  0  0  0  0  0  0  0
   -0.6912  -54.2433  -23.5536 C   0  0  0  0  0  0  0  0  0  0  0  0
   -1.4980  -55.0778  -22.7986 C   0  0  0  0  0  0  0  0  0  0  0  0
   -1.9052  -54.7122  -21.5902 N   0  0  0  0  0  0  0  0  0  0  0  0
   -1.5092  -53.5081  -21.1182 C   0  0  0  0  0  0  0  0  0  0  0  0
   -0.7183  -52.6628  -21.8151 C   0  0  0  0  0  0  0  0  0  0  0  0
    0.1460  -52.4365  -27.7675 C   0  0  0  0  0  0  0  0  0  0  0  0
    0.5026  -51.6312  -26.4707 C   0  0  0  0  0  0  0  0  0  0  0  0
    2.0323  -51.5953  -26.3990 C   0  0  0  0  0  0  0  0  0  0  0  0
    2.4107  -51.1285  -25.0461 C   0  0  0  0  0  0  0  0  0  0  0  0
    3.8050  -50.9099  -24.9073 N   0  0  0  0  0  0  0  0  0  0  0  0
    1.9311  -52.1314  -23.9619 C   0  0  0  0  0  0  0  0  0  0  0  0
    0.4108  -52.0160  -23.9104 C   0  0  0  0  0  0  0  0  0  0  0  0
   -0.0116  -52.4563  -25.3701 C   0  0  0  0  0  0  0  0  0  0  0  0
    4.0856  -50.5487  -23.9572 H   0  0  0  0  0  0  0  0  0  0  0  0
    4.2913  -50.4284  -25.6735 H   0  0  0  0  0  0  0  0  0  0  0  0
 26 27  1  0  0  0
 27 28  1  0  0  0
 28 29  1  0  0  0
 29 30  1  0  0  0
 29 31  1  0  0  0
 31 32  1  0  0  0
 32 20  1  0  0  0
 20 21  2  0  0  0
 21 22  1  0  0  0
 22 23  2  0  0  0
 23 24  1  0  0  0
 24 25  2  0  0  0
 25  1  1  0  0  0
  1  2  1  0  0  0
  2  3  2  0  0  0
  2  5  1  0  0  0
  5  6  2  0  0  0
  6  7  1  0  0  0
  7 12  1  0  0  0
 12 13  2  0  0  0
 13 14  1  0  0  0
 13 15  1  0  0  0
 15 16  2  0  0  0
 16 17  1  0  0  0
 17 18  2  0  0  0
 18 19  1  0  0  0
  7  8  2  0  0  0
  8  9  1  0  0  0
  9 10  2  0  0  0
 10 11  1  0  0  0
 32 33  1  0  0  0
 33 27  1  0  0  0
 25 20  1  0  0  0
 10  5  1  0  0  0
 18 12  1  0  0  0
 30 34  1  0  0  0
 30 35  1  0  0  0
  1  4  1  0  0  0
M  END
> <minimizedAffinity>
-8.44317

> <CNNscore>
0.5326024890

> <CNNaffinity>
7.2478179932

> <CNN_VS>
3.8602058887

> <CNNaffinity_variance>
0.4136225283

$$$$
[H]c1nc([H])c(N([H])C(=O)c2nc(-c3c(F)c([H])c([H])c([H])c3F)c([H])c([H])c2F)c([C@@]2([H])C([H])([H])[C@@]([H])(N([H])[H])C([H])([H])[C@@]([H])(C([H])([H])[H])C2([H])[H])c1[H]


 35 38  0  0  0  0  0  0  0  0999 V2000
   -0.0879  -51.3375  -21.2644 N   0  0  0  0  0  0  0  0  0  0  0  0
    1.0257  -51.2953  -20.4195 C   0  0  0  0  0  0  0  0  0  0  0  0
    1.5571  -52.4127  -20.0263 O   0  0  0  0  0  0  0  0  0  0  0  0
   -0.4979  -50.4295  -21.5811 H   0  0  0  0  0  0  0  0  0  0  0  0
    1.7191  -50.1283  -19.8993 C   0  0  0  0  0  0  0  0  0  0  0  0
    2.6777  -49.5476  -20.6435 N   0  0  0  0  0  0  0  0  0  0  0  0
    3.4072  -48.4769  -20.3233 C   0  0  0  0  0  0  0  0  0  0  0  0
    3.1431  -47.9057  -19.0696 C   0  0  0  0  0  0  0  0  0  0  0  0
    2.1759  -48.4467  -18.2482 C   0  0  0  0  0  0  0  0  0  0  0  0
    1.4732  -49.5647  -18.6875 C   0  0  0  0  0  0  0  0  0  0  0  0
    0.5127  -50.0779  -17.8290 F   0  0  0  0  0  0  0  0  0  0  0  0
    4.3913  -47.8571  -21.1843 C   0  0  0  0  0  0  0  0  0  0  0  0
    4.0359  -46.9273  -22.1506 C   0  0  0  0  0  0  0  0  0  0  0  0
    2.7239  -46.5974  -22.3433 F   0  0  0  0  0  0  0  0  0  0  0  0
    4.9516  -46.3007  -22.9628 C   0  0  0  0  0  0  0  0  0  0  0  0
    6.2822  -46.5773  -22.8442 C   0  0  0  0  0  0  0  0  0  0  0  0
    6.6751  -47.5104  -21.8831 C   0  0  0  0  0  0  0  0  0  0  0  0
    5.7335  -48.1221  -21.0842 C   0  0  0  0  0  0  0  0  0  0  0  0
    6.1141  -49.0421  -20.1347 F   0  0  0  0  0  0  0  0  0  0  0  0
   -0.2395  -53.0000  -22.9443 C   0  0  0  0  0  0  0  0  0  0  0  0
   -0.7072  -54.2709  -23.2969 C   0  0  0  0  0  0  0  0  0  0  0  0
   -1.5026  -55.0278  -22.4532 C   0  0  0  0  0  0  0  0  0  0  0  0
   -1.8543  -54.5653  -21.2607 N   0  0  0  0  0  0  0  0  0  0  0  0
   -1.4134  -53.3405  -20.8935 C   0  0  0  0  0  0  0  0  0  0  0  0
   -0.6315  -52.5682  -21.6794 C   0  0  0  0  0  0  0  0  0  0  0  0
   -0.3822  -52.4864  -27.6409 C   0  0  0  0  0  0  0  0  0  0  0  0
    0.2270  -51.7273  -26.4120 C   0  0  0  0  0  0  0  0  0  0  0  0
    1.7475  -51.8599  -26.5408 C   0  0  0  0  0  0  0  0  0  0  0  0
    2.3486  -51.4397  -25.2549 C   0  0  0  0  0  0  0  0  0  0  0  0
    3.7644  -51.3759  -25.3018 N   0  0  0  0  0  0  0  0  0  0  0  0
    1.9084  -52.3855  -24.1046 C   0  0  0  0  0  0  0  0  0  0  0  0
    0.4298  -52.1037  -23.8569 C   0  0  0  0  0  0  0  0  0  0  0  0
   -0.2258  -52.4926  -25.2433 C   0  0  0  0  0  0  0  0  0  0  0  0
    4.2048  -51.0493  -24.4011 H   0  0  0  0  0  0  0  0  0  0  0  0
    4.1959  -50.9496  -26.1309 H   0  0  0  0  0  0  0  0  0  0  0  0
 26 27  1  0  0  0
 27 28  1  0  0  0
 28 29  1  0  0  0
 29 30  1  0  0  0
 29 31  1  0  0  0
 31 32  1  0  0  0
 32 20  1  0  0  0
 20 21  2  0  0  0
 21 22  1  0  0  0
 22 23  2  0  0  0
 23 24  1  0  0  0
 24 25  2  0  0  0
 25  1  1  0  0  0
  1  2  1  0  0  0
  2  3  2  0  0  0
  2  5  1  0  0  0
  5  6  2  0  0  0
  6  7  1  0  0  0
  7 12  1  0  0  0
 12 13  2  0  0  0
 13 14  1  0  0  0
 13 15  1  0  0  0
 15 16  2  0  0  0
 16 17  1  0  0  0
 17 18  2  0  0  0
 18 19  1  0  0  0
  7  8  2  0  0  0
  8  9  1  0  0  0
  9 10  2  0  0  0
 10 11  1  0  0  0
 32 33  1  0  0  0
 33 27  1  0  0  0
 25 20  1  0  0  0
 10  5  1  0  0  0
 18 12  1  0  0  0
 30 34  1  0  0  0
 30 35  1  0  0  0
  1  4  1  0  0  0
M  END
> <minimizedAffinity>
-8.10465

> <CNNscore>
0.4903206229

> <CNNaffinity>
7.2487955093

> <CNN_VS>
3.5542340279

> <CNNaffinity_variance>
0.3362651467

$$$$
[H]c1nc([H])c(N([H])C(=O)c2nc(-c3c(F)c([H])c([H])c([H])c3F)c([H])c([H])c2F)c([C@@]2([H])C([H])([H])[C@@]([H])(N([H])[H])C([H])([H])[C@@]([H])(C([H])([H])[H])C2([H])[H])c1[H]


 35 38  0  0  0  0  0  0  0  0999 V2000
    0.0885  -51.3728  -23.2266 N   0  0  0  0  0  0  0  0  0  0  0  0
    1.3225  -51.0452  -22.6559 C   0  0  0  0  0  0  0  0  0  0  0  0
    1.9669  -51.9550  -21.9907 O   0  0  0  0  0  0  0  0  0  0  0  0
   -0.4133  -50.6327  -23.7683 H   0  0  0  0  0  0  0  0  0  0  0  0
    2.0324  -49.7777  -22.7090 C   0  0  0  0  0  0  0  0  0  0  0  0
    2.9539  -49.5804  -23.6692 N   0  0  0  0  0  0  0  0  0  0  0  0
    3.6915  -48.4854  -23.8640 C   0  0  0  0  0  0  0  0  0  0  0  0
    3.4806  -47.4334  -22.9603 C   0  0  0  0  0  0  0  0  0  0  0  0
    2.5537  -47.5619  -21.9468 C   0  0  0  0  0  0  0  0  0  0  0  0
    1.8379  -48.7505  -21.8408 C   0  0  0  0  0  0  0  0  0  0  0  0
    0.9192  -48.8383  -20.8058 F   0  0  0  0  0  0  0  0  0  0  0  0
    4.6331  -48.3025  -24.9475 C   0  0  0  0  0  0  0  0  0  0  0  0
    5.9600  -48.6919  -24.8371 C   0  0  0  0  0  0  0  0  0  0  0  0
    6.4280  -49.2301  -23.6715 F   0  0  0  0  0  0  0  0  0  0  0  0
    6.8698  -48.5574  -25.8594 C   0  0  0  0  0  0  0  0  0  0  0  0
    6.4899  -48.0215  -27.0551 C   0  0  0  0  0  0  0  0  0  0  0  0
    5.1618  -47.6165  -27.2001 C   0  0  0  0  0  0  0  0  0  0  0  0
    4.2736  -47.7640  -26.1568 C   0  0  0  0  0  0  0  0  0  0  0  0
    2.9632  -47.3674  -26.2933 F   0  0  0  0  0  0  0  0  0  0  0  0
   -0.3269  -53.4962  -24.1898 C   0  0  0  0  0  0  0  0  0  0  0  0
   -0.7783  -54.8056  -23.9904 C   0  0  0  0  0  0  0  0  0  0  0  0
   -1.3144  -55.2290  -22.7859 C   0  0  0  0  0  0  0  0  0  0  0  0
   -1.4198  -54.3925  -21.7619 N   0  0  0  0  0  0  0  0  0  0  0  0
   -0.9882  -53.1213  -21.9265 C   0  0  0  0  0  0  0  0  0  0  0  0
   -0.4533  -52.6640  -23.0800 C   0  0  0  0  0  0  0  0  0  0  0  0
   -2.7424  -52.4883  -28.1256 C   0  0  0  0  0  0  0  0  0  0  0  0
   -1.2934  -52.2683  -27.5692 C   0  0  0  0  0  0  0  0  0  0  0  0
   -0.3689  -53.1269  -28.4377 C   0  0  0  0  0  0  0  0  0  0  0  0
    0.9464  -53.2004  -27.7623 C   0  0  0  0  0  0  0  0  0  0  0  0
    1.9349  -53.8465  -28.5474 N   0  0  0  0  0  0  0  0  0  0  0  0
    0.8228  -53.9160  -26.3897 C   0  0  0  0  0  0  0  0  0  0  0  0
    0.0622  -52.9625  -25.4734 C   0  0  0  0  0  0  0  0  0  0  0  0
   -1.3310  -52.8243  -26.2104 C   0  0  0  0  0  0  0  0  0  0  0  0
    2.8848  -53.8799  -28.0907 H   0  0  0  0  0  0  0  0  0  0  0  0
    1.9835  -53.6074  -29.5453 H   0  0  0  0  0  0  0  0  0  0  0  0
 26 27  1  0  0  0
 27 28  1  0  0  0
 28 29  1  0  0  0
 29 30  1  0  0  0
 29 31  1  0  0  0
 31 32  1  0  0  0
 32 20  1  0  0  0
 20 21  2  0  0  0
 21 22  1  0  0  0
 22 23  2  0  0  0
 23 24  1  0  0  0
 24 25  2  0  0  0
 25  1  1  0  0  0
  1  2  1  0  0  0
  2  3  2  0  0  0
  2  5  1  0  0  0
  5  6  2  0  0  0
  6  7  1  0  0  0
  7 12  1  0  0  0
 12 13  2  0  0  0
 13 14  1  0  0  0
 13 15  1  0  0  0
 15 16  2  0  0  0
 16 17  1  0  0  0
 17 18  2  0  0  0
 18 19  1  0  0  0
  7  8  2  0  0  0
  8  9  1  0  0  0
  9 10  2  0  0  0
 10 11  1  0  0  0
 32 33  1  0  0  0
 33 27  1  0  0  0
 25 20  1  0  0  0
 10  5  1  0  0  0
 18 12  1  0  0  0
 30 34  1  0  0  0
 30 35  1  0  0  0
  1  4  1  0  0  0
M  END
> <minimizedAffinity>
-8.76448

> <CNNscore>
0.4831253290

> <CNNaffinity>
7.4402246475

> <CNN_VS>
3.5945611000

> <CNNaffinity_variance>
0.2755557299

$$$$
[H]c1nc([H])c(N([H])C(=O)c2nc(-c3c(F)c([H])c([H])c([H])c3F)c([H])c([H])c2F)c([C@@]2([H])C([H])([H])[C@@]([H])(N([H])[H])C([H])([H])[C@@]([H])(C([H])([H])[H])C2([H])[H])c1[H]


 35 38  0  0  0  0  0  0  0  0999 V2000
    1.5849  -52.2756  -20.9737 N   0  0  0  0  0  0  0  0  0  0  0  0
    0.9096  -52.2138  -22.1967 C   0  0  0  0  0  0  0  0  0  0  0  0
   -0.3757  -52.0300  -22.1947 O   0  0  0  0  0  0  0  0  0  0  0  0
    2.6211  -52.4132  -20.9919 H   0  0  0  0  0  0  0  0  0  0  0  0
    1.4613  -52.3182  -23.5376 C   0  0  0  0  0  0  0  0  0  0  0  0
    0.6245  -52.4108  -24.5871 N   0  0  0  0  0  0  0  0  0  0  0  0
    0.9576  -52.5111  -25.8755 C   0  0  0  0  0  0  0  0  0  0  0  0
    2.3320  -52.5271  -26.1557 C   0  0  0  0  0  0  0  0  0  0  0  0
    3.2520  -52.4387  -25.1317 C   0  0  0  0  0  0  0  0  0  0  0  0
    2.7897  -52.3346  -23.8233 C   0  0  0  0  0  0  0  0  0  0  0  0
    3.7485  -52.2516  -22.8249 F   0  0  0  0  0  0  0  0  0  0  0  0
    0.0163  -52.5537  -26.9738 C   0  0  0  0  0  0  0  0  0  0  0  0
    0.4044  -52.9130  -28.2563 C   0  0  0  0  0  0  0  0  0  0  0  0
    1.7122  -53.2020  -28.5275 F   0  0  0  0  0  0  0  0  0  0  0  0
   -0.4727  -52.9904  -29.3125 C   0  0  0  0  0  0  0  0  0  0  0  0
   -1.7956  -52.7098  -29.1328 C   0  0  0  0  0  0  0  0  0  0  0  0
   -2.2205  -52.3422  -27.8548 C   0  0  0  0  0  0  0  0  0  0  0  0
   -1.3172  -52.2732  -26.8164 C   0  0  0  0  0  0  0  0  0  0  0  0
   -1.7295  -51.9122  -25.5544 F   0  0  0  0  0  0  0  0  0  0  0  0
    1.2076  -51.0248  -18.9983 C   0  0  0  0  0  0  0  0  0  0  0  0
    0.4320  -50.8605  -17.8452 C   0  0  0  0  0  0  0  0  0  0  0  0
   -0.5662  -51.7523  -17.4906 C   0  0  0  0  0  0  0  0  0  0  0  0
   -0.8257  -52.8114  -18.2459 N   0  0  0  0  0  0  0  0  0  0  0  0
   -0.0927  -52.9927  -19.3680 C   0  0  0  0  0  0  0  0  0  0  0  0
    0.8869  -52.1476  -19.7577 C   0  0  0  0  0  0  0  0  0  0  0  0
    2.0460  -47.6324  -22.1811 C   0  0  0  0  0  0  0  0  0  0  0  0
    2.7762  -48.2680  -20.9481 C   0  0  0  0  0  0  0  0  0  0  0  0
    3.9981  -49.0020  -21.5090 C   0  0  0  0  0  0  0  0  0  0  0  0
    4.5346  -49.8712  -20.4375 C   0  0  0  0  0  0  0  0  0  0  0  0
    5.7604  -50.4905  -20.7908 N   0  0  0  0  0  0  0  0  0  0  0  0
    3.4994  -50.9574  -20.0377 C   0  0  0  0  0  0  0  0  0  0  0  0
    2.3738  -50.2319  -19.3072 C   0  0  0  0  0  0  0  0  0  0  0  0
    1.8229  -49.2531  -20.4214 C   0  0  0  0  0  0  0  0  0  0  0  0
    6.1695  -51.0897  -20.0254 H   0  0  0  0  0  0  0  0  0  0  0  0
    6.4676  -49.9144  -21.2633 H   0  0  0  0  0  0  0  0  0  0  0  0
 26 27  1  0  0  0
 27 28  1  0  0  0
 28 29  1  0  0  0
 29 30  1  0  0  0
 29 31  1  0  0  0
 31 32  1  0  0  0
 32 20  1  0  0  0
 20 21  2  0  0  0
 21 22  1  0  0  0
 22 23  2  0  0  0
 23 24  1  0  0  0
 24 25  2  0  0  0
 25  1  1  0  0  0
  1  2  1  0  0  0
  2  3  2  0  0  0
  2  5  1  0  0  0
  5  6  2  0  0  0
  6  7  1  0  0  0
  7 12  1  0  0  0
 12 13  2  0  0  0
 13 14  1  0  0  0
 13 15  1  0  0  0
 15 16  2  0  0  0
 16 17  1  0  0  0
 17 18  2  0  0  0
 18 19  1  0  0  0
  7  8  2  0  0  0
  8  9  1  0  0  0
  9 10  2  0  0  0
 10 11  1  0  0  0
 32 33  1  0  0  0
 33 27  1  0  0  0
 25 20  1  0  0  0
 10  5  1  0  0  0
 18 12  1  0  0  0
 30 34  1  0  0  0
 30 35  1  0  0  0
  1  4  1  0  0  0
M  END
> <minimizedAffinity>
-9.25012

> <CNNscore>
0.4453550279

> <CNNaffinity>
7.1904497147

> <CNN_VS>
3.2023029327

> <CNNaffinity_variance>
0.2616838515

$$$$
[H]c1nc([H])c(N([H])C(=O)c2nc(-c3c(F)c([H])c([H])c([H])c3F)c([H])c([H])c2F)c([C@@]2([H])C([H])([H])[C@@]([H])(N([H])[H])C([H])([H])[C@@]([H])(C([H])([H])[H])C2([H])[H])c1[H]


 35 38  0  0  0  0  0  0  0  0999 V2000
    1.5650  -52.0848  -21.7501 N   0  0  0  0  0  0  0  0  0  0  0  0
    1.3891  -50.7667  -21.3173 C   0  0  0  0  0  0  0  0  0  0  0  0
    0.1902  -50.3525  -21.0401 O   0  0  0  0  0  0  0  0  0  0  0  0
    2.5374  -52.4068  -21.9592 H   0  0  0  0  0  0  0  0  0  0  0  0
    2.4004  -49.7432  -21.1100 C   0  0  0  0  0  0  0  0  0  0  0  0
    2.5194  -49.1733  -19.8971 N   0  0  0  0  0  0  0  0  0  0  0  0
    3.3878  -48.2271  -19.5342 C   0  0  0  0  0  0  0  0  0  0  0  0
    4.2635  -47.7799  -20.5348 C   0  0  0  0  0  0  0  0  0  0  0  0
    4.2004  -48.3150  -21.8047 C   0  0  0  0  0  0  0  0  0  0  0  0
    3.2549  -49.3011  -22.0697 C   0  0  0  0  0  0  0  0  0  0  0  0
    3.2240  -49.8087  -23.3597 F   0  0  0  0  0  0  0  0  0  0  0  0
    3.5115  -47.6841  -18.1986 C   0  0  0  0  0  0  0  0  0  0  0  0
    3.3626  -46.3287  -17.9433 C   0  0  0  0  0  0  0  0  0  0  0  0
    3.1308  -45.4536  -18.9670 F   0  0  0  0  0  0  0  0  0  0  0  0
    3.4458  -45.7885  -16.6815 C   0  0  0  0  0  0  0  0  0  0  0  0
    3.6836  -46.5888  -15.6026 C   0  0  0  0  0  0  0  0  0  0  0  0
    3.8410  -47.9582  -15.8236 C   0  0  0  0  0  0  0  0  0  0  0  0
    3.7526  -48.4696  -17.1002 C   0  0  0  0  0  0  0  0  0  0  0  0
    3.9061  -49.8183  -17.3249 F   0  0  0  0  0  0  0  0  0  0  0  0
    0.1573  -53.3231  -23.1973 C   0  0  0  0  0  0  0  0  0  0  0  0
   -0.8737  -54.2626  -23.3087 C   0  0  0  0  0  0  0  0  0  0  0  0
   -1.5369  -54.7691  -22.2037 C   0  0  0  0  0  0  0  0  0  0  0  0
   -1.2111  -54.3738  -20.9801 N   0  0  0  0  0  0  0  0  0  0  0  0
   -0.2157  -53.4683  -20.8435 C   0  0  0  0  0  0  0  0  0  0  0  0
    0.4635  -52.9504  -21.8905 C   0  0  0  0  0  0  0  0  0  0  0  0
   -1.3214  -52.5089  -27.6122 C   0  0  0  0  0  0  0  0  0  0  0  0
   -0.1399  -52.0574  -26.6861 C   0  0  0  0  0  0  0  0  0  0  0  0
    1.1313  -52.6572  -27.2949 C   0  0  0  0  0  0  0  0  0  0  0  0
    2.2159  -52.5274  -26.2957 C   0  0  0  0  0  0  0  0  0  0  0  0
    3.4828  -52.9130  -26.8028 N   0  0  0  0  0  0  0  0  0  0  0  0
    1.8931  -53.3523  -25.0204 C   0  0  0  0  0  0  0  0  0  0  0  0
    0.7452  -52.6319  -24.3201 C   0  0  0  0  0  0  0  0  0  0  0  0
   -0.4104  -52.7087  -25.3980 C   0  0  0  0  0  0  0  0  0  0  0  0
    4.2701  -52.7977  -26.1107 H   0  0  0  0  0  0  0  0  0  0  0  0
    3.7358  -52.5963  -27.7467 H   0  0  0  0  0  0  0  0  0  0  0  0
 26 27  1  0  0  0
 27 28  1  0  0  0
 28 29  1  0  0  0
 29 30  1  0  0  0
 29 31  1  0  0  0
 31 32  1  0  0  0
 32 20  1  0  0  0
 20 21  2  0  0  0
 21 22  1  0  0  0
 22 23  2  0  0  0
 23 24  1  0  0  0
 24 25  2  0  0  0
 25  1  1  0  0  0
  1  2  1  0  0  0
  2  3  2  0  0  0
  2  5  1  0  0  0
  5  6  2  0  0  0
  6  7  1  0  0  0
  7 12  1  0  0  0
 12 13  2  0  0  0
 13 14  1  0  0  0
 13 15  1  0  0  0
 15 16  2  0  0  0
 16 17  1  0  0  0
 17 18  2  0  0  0
 18 19  1  0  0  0
  7  8  2  0  0  0
  8  9  1  0  0  0
  9 10  2  0  0  0
 10 11  1  0  0  0
 32 33  1  0  0  0
 33 27  1  0  0  0
 25 20  1  0  0  0
 10  5  1  0  0  0
 18 12  1  0  0  0
 30 34  1  0  0  0
 30 35  1  0  0  0
  1  4  1  0  0  0
M  END
> <minimizedAffinity>
-8.06309

> <CNNscore>
0.4341365397

> <CNNaffinity>
7.1646652222

> <CNN_VS>
3.1104428768

> <CNNaffinity_variance>
0.5358480215

$$$$
[H]c1nc([H])c(N([H])C(=O)c2nc(-c3c(F)c([H])c([H])c([H])c3F)c([H])c([H])c2F)c([C@@]2([H])C([H])([H])[C@@]([H])(N([H])[H])C([H])([H])[C@@]([H])(C([H])([H])[H])C2([H])[H])c1[H]


 35 38  0  0  0  0  0  0  0  0999 V2000
    0.5865  -51.4115  -23.4321 N   0  0  0  0  0  0  0  0  0  0  0  0
    1.9759  -51.3682  -23.2787 C   0  0  0  0  0  0  0  0  0  0  0  0
    2.6080  -52.4620  -22.9794 O   0  0  0  0  0  0  0  0  0  0  0  0
    0.0929  -50.5250  -23.6838 H   0  0  0  0  0  0  0  0  0  0  0  0
    2.8638  -50.2263  -23.4233 C   0  0  0  0  0  0  0  0  0  0  0  0
    3.5683  -49.8028  -22.3582 N   0  0  0  0  0  0  0  0  0  0  0  0
    4.4241  -48.7797  -22.3145 C   0  0  0  0  0  0  0  0  0  0  0  0
    4.5966  -48.0709  -23.5127 C   0  0  0  0  0  0  0  0  0  0  0  0
    3.9064  -48.4439  -24.6474 C   0  0  0  0  0  0  0  0  0  0  0  0
    3.0406  -49.5311  -24.5774 C   0  0  0  0  0  0  0  0  0  0  0  0
    2.3647  -49.8693  -25.7400 F   0  0  0  0  0  0  0  0  0  0  0  0
    5.1999  -48.3973  -21.1543 C   0  0  0  0  0  0  0  0  0  0  0  0
    4.8150  -47.3503  -20.3297 C   0  0  0  0  0  0  0  0  0  0  0  0
    3.6984  -46.6173  -20.6182 F   0  0  0  0  0  0  0  0  0  0  0  0
    5.5160  -46.9833  -19.2050 C   0  0  0  0  0  0  0  0  0  0  0  0
    6.6479  -47.6555  -18.8475 C   0  0  0  0  0  0  0  0  0  0  0  0
    7.0656  -48.7137  -19.6566 C   0  0  0  0  0  0  0  0  0  0  0  0
    6.3420  -49.0574  -20.7778 C   0  0  0  0  0  0  0  0  0  0  0  0
    6.7478  -50.0996  -21.5792 F   0  0  0  0  0  0  0  0  0  0  0  0
   -0.1753  -53.4443  -24.3789 C   0  0  0  0  0  0  0  0  0  0  0  0
   -0.7923  -54.6810  -24.1593 C   0  0  0  0  0  0  0  0  0  0  0  0
   -1.3116  -55.0413  -22.9273 C   0  0  0  0  0  0  0  0  0  0  0  0
   -1.2403  -54.2113  -21.8950 N   0  0  0  0  0  0  0  0  0  0  0  0
   -0.6462  -53.0103  -22.0789 C   0  0  0  0  0  0  0  0  0  0  0  0
   -0.1204  -52.6169  -23.2598 C   0  0  0  0  0  0  0  0  0  0  0  0
   -2.6112  -52.5223  -28.3232 C   0  0  0  0  0  0  0  0  0  0  0  0
   -1.1551  -52.3041  -27.7851 C   0  0  0  0  0  0  0  0  0  0  0  0
   -0.2484  -53.1993  -28.6353 C   0  0  0  0  0  0  0  0  0  0  0  0
    1.0715  -53.2693  -27.9687 C   0  0  0  0  0  0  0  0  0  0  0  0
    2.0454  -53.9503  -28.7423 N   0  0  0  0  0  0  0  0  0  0  0  0
    0.9507  -53.9427  -26.5746 C   0  0  0  0  0  0  0  0  0  0  0  0
    0.2094  -52.9534  -25.6808 C   0  0  0  0  0  0  0  0  0  0  0  0
   -1.1881  -52.8195  -26.4103 C   0  0  0  0  0  0  0  0  0  0  0  0
    2.9987  -53.9821  -28.2925 H   0  0  0  0  0  0  0  0  0  0  0  0
    2.0885  -53.7413  -29.7472 H   0  0  0  0  0  0  0  0  0  0  0  0
 26 27  1  0  0  0
 27 28  1  0  0  0
 28 29  1  0  0  0
 29 30  1  0  0  0
 29 31  1  0  0  0
 31 32  1  0  0  0
 32 20  1  0  0  0
 20 21  2  0  0  0
 21 22  1  0  0  0
 22 23  2  0  0  0
 23 24  1  0  0  0
 24 25  2  0  0  0
 25  1  1  0  0  0
  1  2  1  0  0  0
  2  3  2  0  0  0
  2  5  1  0  0  0
  5  6  2  0  0  0
  6  7  1  0  0  0
  7 12  1  0  0  0
 12 13  2  0  0  0
 13 14  1  0  0  0
 13 15  1  0  0  0
 15 16  2  0  0  0
 16 17  1  0  0  0
 17 18  2  0  0  0
 18 19  1  0  0  0
  7  8  2  0  0  0
  8  9  1  0  0  0
  9 10  2  0  0  0
 10 11  1  0  0  0
 32 33  1  0  0  0
 33 27  1  0  0  0
 25 20  1  0  0  0
 10  5  1  0  0  0
 18 12  1  0  0  0
 30 34  1  0  0  0
 30 35  1  0  0  0
  1  4  1  0  0  0
M  END
> <minimizedAffinity>
-8.45387

> <CNNscore>
0.3989553452

> <CNNaffinity>
7.4347295761

> <CNN_VS>
2.9661250114

> <CNNaffinity_variance>
0.5096758604

$$$$
[H]c1nc([H])c(N([H])C(=O)c2nc(-c3c(F)c([H])c([H])c([H])c3F)c([H])c([H])c2F)c([C@@]2([H])C([H])([H])[C@@]([H])(N([H])[H])C([H])([H])[C@@]([H])(C([H])([H])[H])C2([H])[H])c1[H]


 35 38  0  0  0  0  0  0  0  0999 V2000
   -0.2316  -51.9408  -24.0156 N   0  0  0  0  0  0  0  0  0  0  0  0
   -0.3701  -53.0298  -23.1491 C   0  0  0  0  0  0  0  0  0  0  0  0
   -0.3869  -54.2288  -23.6468 O   0  0  0  0  0  0  0  0  0  0  0  0
   -0.2089  -50.9823  -23.5990 H   0  0  0  0  0  0  0  0  0  0  0  0
   -0.4923  -53.0196  -21.7006 C   0  0  0  0  0  0  0  0  0  0  0  0
    0.3848  -52.3053  -20.9722 N   0  0  0  0  0  0  0  0  0  0  0  0
    0.4174  -52.1844  -19.6436 C   0  0  0  0  0  0  0  0  0  0  0  0
   -0.5705  -52.8872  -18.9379 C   0  0  0  0  0  0  0  0  0  0  0  0
   -1.5040  -53.6440  -19.6152 C   0  0  0  0  0  0  0  0  0  0  0  0
   -1.4441  -53.6951  -21.0046 C   0  0  0  0  0  0  0  0  0  0  0  0
   -2.3993  -54.4701  -21.6446 F   0  0  0  0  0  0  0  0  0  0  0  0
    1.3514  -51.3581  -18.9094 C   0  0  0  0  0  0  0  0  0  0  0  0
    0.9327  -50.4917  -17.9101 C   0  0  0  0  0  0  0  0  0  0  0  0
   -0.3959  -50.3656  -17.6161 F   0  0  0  0  0  0  0  0  0  0  0  0
    1.7996  -49.7164  -17.1763 C   0  0  0  0  0  0  0  0  0  0  0  0
    3.1424  -49.7731  -17.4099 C   0  0  0  0  0  0  0  0  0  0  0  0
    3.5985  -50.6331  -18.4105 C   0  0  0  0  0  0  0  0  0  0  0  0
    2.7048  -51.3972  -19.1292 C   0  0  0  0  0  0  0  0  0  0  0  0
    3.1477  -52.2471  -20.1163 F   0  0  0  0  0  0  0  0  0  0  0  0
    1.1832  -52.1846  -25.8993 C   0  0  0  0  0  0  0  0  0  0  0  0
    1.2777  -52.4807  -27.2636 C   0  0  0  0  0  0  0  0  0  0  0  0
    0.1613  -52.6975  -28.0537 C   0  0  0  0  0  0  0  0  0  0  0  0
   -1.0574  -52.6306  -27.5343 N   0  0  0  0  0  0  0  0  0  0  0  0
   -1.1774  -52.3488  -26.2169 C   0  0  0  0  0  0  0  0  0  0  0  0
   -0.1183  -52.1355  -25.4054 C   0  0  0  0  0  0  0  0  0  0  0  0
    3.5966  -48.1344  -25.5627 C   0  0  0  0  0  0  0  0  0  0  0  0
    3.5141  -49.4992  -24.7958 C   0  0  0  0  0  0  0  0  0  0  0  0
    4.8558  -50.2004  -25.0291 C   0  0  0  0  0  0  0  0  0  0  0  0
    4.7109  -51.6090  -24.5973 C   0  0  0  0  0  0  0  0  0  0  0  0
    5.9354  -52.3237  -24.6249 N   0  0  0  0  0  0  0  0  0  0  0  0
    3.6579  -52.3474  -25.4676 C   0  0  0  0  0  0  0  0  0  0  0  0
    2.2995  -51.7693  -25.0836 C   0  0  0  0  0  0  0  0  0  0  0  0
    2.4541  -50.2467  -25.4845 C   0  0  0  0  0  0  0  0  0  0  0  0
    5.8526  -53.3208  -24.2916 H   0  0  0  0  0  0  0  0  0  0  0  0
    6.7717  -51.8522  -24.2596 H   0  0  0  0  0  0  0  0  0  0  0  0
 26 27  1  0  0  0
 27 28  1  0  0  0
 28 29  1  0  0  0
 29 30  1  0  0  0
 29 31  1  0  0  0
 31 32  1  0  0  0
 32 20  1  0  0  0
 20 21  2  0  0  0
 21 22  1  0  0  0
 22 23  2  0  0  0
 23 24  1  0  0  0
 24 25  2  0  0  0
 25  1  1  0  0  0
  1  2  1  0  0  0
  2  3  2  0  0  0
  2  5  1  0  0  0
  5  6  2  0  0  0
  6  7  1  0  0  0
  7 12  1  0  0  0
 12 13  2  0  0  0
 13 14  1  0  0  0
 13 15  1  0  0  0
 15 16  2  0  0  0
 16 17  1  0  0  0
 17 18  2  0  0  0
 18 19  1  0  0  0
  7  8  2  0  0  0
  8  9  1  0  0  0
  9 10  2  0  0  0
 10 11  1  0  0  0
 32 33  1  0  0  0
 33 27  1  0  0  0
 25 20  1  0  0  0
 10  5  1  0  0  0
 18 12  1  0  0  0
 30 34  1  0  0  0
 30 35  1  0  0  0
  1  4  1  0  0  0
M  END
> <minimizedAffinity>
-9.16110

> <CNNscore>
0.3179196119

> <CNNaffinity>
7.1282806396

> <CNN_VS>
2.2662203312

> <CNNaffinity_variance>
0.2691838741

$$$$
[H]c1nc([H])c(N([H])C(=O)c2nc(-c3c(F)c([H])c([H])c([H])c3F)c([H])c([H])c2F)c([C@@]2([H])C([H])([H])[C@@]([H])(N([H])[H])C([H])([H])[C@@]([H])(C([H])([H])[H])C2([H])[H])c1[H]


 35 38  0  0  0  0  0  0  0  0999 V2000
    1.3467  -52.6513  -22.1740 N   0  0  0  0  0  0  0  0  0  0  0  0
    1.3527  -51.9122  -23.3613 C   0  0  0  0  0  0  0  0  0  0  0  0
    0.2579  -51.8304  -24.0544 O   0  0  0  0  0  0  0  0  0  0  0  0
    2.2328  -52.6989  -21.6215 H   0  0  0  0  0  0  0  0  0  0  0  0
    2.4539  -51.1752  -23.9590 C   0  0  0  0  0  0  0  0  0  0  0  0
    2.6239  -49.8781  -23.6446 N   0  0  0  0  0  0  0  0  0  0  0  0
    3.5755  -49.0586  -24.0961 C   0  0  0  0  0  0  0  0  0  0  0  0
    4.4897  -49.6178  -25.0013 C   0  0  0  0  0  0  0  0  0  0  0  0
    4.3788  -50.9413  -25.3741 C   0  0  0  0  0  0  0  0  0  0  0  0
    3.3466  -51.7042  -24.8365 C   0  0  0  0  0  0  0  0  0  0  0  0
    3.2702  -53.0284  -25.2409 F   0  0  0  0  0  0  0  0  0  0  0  0
    3.7475  -47.6821  -23.6843 C   0  0  0  0  0  0  0  0  0  0  0  0
    3.3055  -46.6242  -24.4654 C   0  0  0  0  0  0  0  0  0  0  0  0
    2.7233  -46.8572  -25.6796 F   0  0  0  0  0  0  0  0  0  0  0  0
    3.4290  -45.3081  -24.0868 C   0  0  0  0  0  0  0  0  0  0  0  0
    4.0063  -44.9845  -22.8938 C   0  0  0  0  0  0  0  0  0  0  0  0
    4.4646  -46.0247  -22.0834 C   0  0  0  0  0  0  0  0  0  0  0  0
    4.3270  -47.3339  -22.4907 C   0  0  0  0  0  0  0  0  0  0  0  0
    4.7760  -48.3638  -21.6965 F   0  0  0  0  0  0  0  0  0  0  0  0
   -0.3216  -52.8763  -20.5081 C   0  0  0  0  0  0  0  0  0  0  0  0
   -1.5379  -53.4615  -20.1388 C   0  0  0  0  0  0  0  0  0  0  0  0
   -2.1819  -54.3954  -20.9330 C   0  0  0  0  0  0  0  0  0  0  0  0
   -1.6582  -54.7733  -22.0916 N   0  0  0  0  0  0  0  0  0  0  0  0
   -0.4844  -54.2210  -22.4742 C   0  0  0  0  0  0  0  0  0  0  0  0
    0.1777  -53.3028  -21.7365 C   0  0  0  0  0  0  0  0  0  0  0  0
   -0.9247  -51.3649  -16.0704 C   0  0  0  0  0  0  0  0  0  0  0  0
    0.2093  -51.3527  -17.1526 C   0  0  0  0  0  0  0  0  0  0  0  0
    0.3988  -49.8867  -17.5541 C   0  0  0  0  0  0  0  0  0  0  0  0
    1.2228  -49.8576  -18.7837 C   0  0  0  0  0  0  0  0  0  0  0  0
    1.5932  -48.5442  -19.1692 N   0  0  0  0  0  0  0  0  0  0  0  0
    0.4858  -50.5561  -19.9586 C   0  0  0  0  0  0  0  0  0  0  0  0
    0.4738  -52.0467  -19.6346 C   0  0  0  0  0  0  0  0  0  0  0  0
   -0.3554  -52.0936  -18.2880 C   0  0  0  0  0  0  0  0  0  0  0  0
    2.2053  -48.5102  -20.0273 H   0  0  0  0  0  0  0  0  0  0  0  0
    1.9081  -47.9013  -18.4324 H   0  0  0  0  0  0  0  0  0  0  0  0
 26 27  1  0  0  0
 27 28  1  0  0  0
 28 29  1  0  0  0
 29 30  1  0  0  0
 29 31  1  0  0  0
 31 32  1  0  0  0
 32 20  1  0  0  0
 20 21  2  0  0  0
 21 22  1  0  0  0
 22 23  2  0  0  0
 23 24  1  0  0  0
 24 25  2  0  0  0
 25  1  1  0  0  0
  1  2  1  0  0  0
  2  3  2  0  0  0
  2  5  1  0  0  0
  5  6  2  0  0  0
  6  7  1  0  0  0
  7 12  1  0  0  0
 12 13  2  0  0  0
 13 14  1  0  0  0
 13 15  1  0  0  0
 15 16  2  0  0  0
 16 17  1  0  0  0
 17 18  2  0  0  0
 18 19  1  0  0  0
  7  8  2  0  0  0
  8  9  1  0  0  0
  9 10  2  0  0  0
 10 11  1  0  0  0
 32 33  1  0  0  0
 33 27  1  0  0  0
 25 20  1  0  0  0
 10  5  1  0  0  0
 18 12  1  0  0  0
 30 34  1  0  0  0
 30 35  1  0  0  0
  1  4  1  0  0  0
M  END
> <minimizedAffinity>
-7.58120

> <CNNscore>
0.3145904839

> <CNNaffinity>
6.9555540085

> <CNN_VS>
2.1881511211

> <CNNaffinity_variance>
0.4090262353

$$$$
[H]OC(=O)C1(C([H])([H])c2c([H])nc(OC([H])([H])C([H])([H])c3nc(-c4c([H])c([H])c([H])c(Cl)c4[H])oc3C([H])([H])[H])c([H])c2[H])OC([H])([H])C([H])([H])C1([H])[H]


 32 35  0  0  0  0  0  0  0  0999 V2000
   -1.4321  -54.5900  -21.6978 O   0  0  0  0  0  0  0  0  0  0  0  0
   -0.9416  -54.5728  -22.9919 C   0  0  0  0  0  0  0  0  0  0  0  0
   -0.1131  -53.5124  -23.3946 C   0  0  0  0  0  0  0  0  0  0  0  0
    0.3909  -53.4693  -24.6805 C   0  0  0  0  0  0  0  0  0  0  0  0
    0.1043  -54.4520  -25.6059 C   0  0  0  0  0  0  0  0  0  0  0  0
   -0.7070  -55.4619  -25.1645 C   0  0  0  0  0  0  0  0  0  0  0  0
   -1.1918  -55.4966  -23.9158 N   0  0  0  0  0  0  0  0  0  0  0  0
    0.6422  -54.4051  -26.9653 C   0  0  0  0  0  0  0  0  0  0  0  0
    0.8906  -53.0672  -27.5591 C   0  0  0  0  0  0  0  0  0  0  0  0
    0.5351  -53.0624  -29.0384 C   0  0  0  0  0  0  0  0  0  0  0  0
   -0.9778  -53.0216  -28.9504 C   0  0  0  0  0  0  0  0  0  0  0  0
   -1.2000  -52.2898  -27.6723 C   0  0  0  0  0  0  0  0  0  0  0  0
   -0.0210  -52.1653  -26.9816 O   0  0  0  0  0  0  0  0  0  0  0  0
    2.2388  -52.5052  -27.3364 C   0  0  0  0  0  0  0  0  0  0  0  0
    2.4297  -51.2401  -27.2781 O   0  0  0  0  0  0  0  0  0  0  0  0
    3.3888  -53.2605  -27.1765 O   0  0  0  0  0  0  0  0  0  0  0  0
    4.0254  -52.9875  -26.4409 H   0  0  0  0  0  0  0  0  0  0  0  0
   -1.4467  -53.5292  -20.7925 C   0  0  0  0  0  0  0  0  0  0  0  0
   -0.1896  -53.5864  -19.9369 C   0  0  0  0  0  0  0  0  0  0  0  0
   -0.3191  -51.6208  -17.4706 C   0  0  0  0  0  0  0  0  0  0  0  0
    0.2876  -51.3444  -18.7991 C   0  0  0  0  0  0  0  0  0  0  0  0
    0.8679  -50.2399  -19.1727 O   0  0  0  0  0  0  0  0  0  0  0  0
    1.2960  -50.3179  -20.4010 C   0  0  0  0  0  0  0  0  0  0  0  0
    0.9748  -51.5424  -20.8474 N   0  0  0  0  0  0  0  0  0  0  0  0
    0.3407  -52.2211  -19.8760 C   0  0  0  0  0  0  0  0  0  0  0  0
    1.9898  -49.2862  -21.1574 C   0  0  0  0  0  0  0  0  0  0  0  0
    2.3915  -48.0825  -20.6211 C   0  0  0  0  0  0  0  0  0  0  0  0
    3.0503  -47.1253  -21.3655 C   0  0  0  0  0  0  0  0  0  0  0  0
    3.3367  -47.3396  -22.6972 C   0  0  0  0  0  0  0  0  0  0  0  0
    2.9475  -48.5398  -23.2708 C   0  0  0  0  0  0  0  0  0  0  0  0
    3.2898  -48.8631  -24.9687 Cl  0  0  0  0  0  0  0  0  0  0  0  0
    2.2910  -49.4812  -22.5093 C   0  0  0  0  0  0  0  0  0  0  0  0
 20 21  1  0  0  0
 21 22  1  0  0  0
 22 23  1  0  0  0
 23 26  1  0  0  0
 26 27  2  0  0  0
 27 28  1  0  0  0
 28 29  2  0  0  0
 29 30  1  0  0  0
 30 31  1  0  0  0
 30 32  2  0  0  0
 23 24  2  0  0  0
 24 25  1  0  0  0
 25 19  1  0  0  0
 19 18  1  0  0  0
 18  1  1  0  0  0
  1  2  1  0  0  0
  2  3  2  0  0  0
  3  4  1  0  0  0
  4  5  2  0  0  0
  5  8  1  0  0  0
  8  9  1  0  0  0
  9 14  1  0  0  0
 14 15  2  0  0  0
 14 16  1  0  0  0
  9 10  1  0  0  0
 10 11  1  0  0  0
 11 12  1  0  0  0
 12 13  1  0  0  0
  5  6  1  0  0  0
  6  7  2  0  0  0
 25 21  2  0  0  0
  7  2  1  0  0  0
 32 26  1  0  0  0
 13  9  1  0  0  0
 16 17  1  0  0  0
M  END
> <minimizedAffinity>
-8.18314

> <CNNscore>
0.9087535143

> <CNNaffinity>
7.3903379440

> <CNN_VS>
6.7159957886

> <CNNaffinity_variance>
0.0232896153

$$$$
[H]OC(=O)C1(C([H])([H])c2c([H])nc(OC([H])([H])C([H])([H])c3nc(-c4c([H])c([H])c([H])c(Cl)c4[H])oc3C([H])([H])[H])c([H])c2[H])OC([H])([H])C([H])([H])C1([H])[H]


 32 35  0  0  0  0  0  0  0  0999 V2000
   -1.6182  -54.6583  -21.5966 O   0  0  0  0  0  0  0  0  0  0  0  0
   -1.0457  -54.5545  -22.8524 C   0  0  0  0  0  0  0  0  0  0  0  0
   -0.1547  -53.5002  -23.1123 C   0  0  0  0  0  0  0  0  0  0  0  0
    0.4316  -53.3720  -24.3570 C   0  0  0  0  0  0  0  0  0  0  0  0
    0.1687  -54.2617  -25.3785 C   0  0  0  0  0  0  0  0  0  0  0  0
   -0.7058  -55.2697  -25.0747 C   0  0  0  0  0  0  0  0  0  0  0  0
   -1.2703  -55.3873  -23.8652 N   0  0  0  0  0  0  0  0  0  0  0  0
    0.7938  -54.1251  -26.6938 C   0  0  0  0  0  0  0  0  0  0  0  0
    0.7626  -52.7851  -27.3324 C   0  0  0  0  0  0  0  0  0  0  0  0
    0.4925  -52.9080  -28.8246 C   0  0  0  0  0  0  0  0  0  0  0  0
   -0.9927  -53.2115  -28.8042 C   0  0  0  0  0  0  0  0  0  0  0  0
   -1.4411  -52.5102  -27.5690 C   0  0  0  0  0  0  0  0  0  0  0  0
   -0.3586  -52.0978  -26.8337 O   0  0  0  0  0  0  0  0  0  0  0  0
    1.9346  -51.9229  -27.0754 C   0  0  0  0  0  0  0  0  0  0  0  0
    1.9181  -51.0381  -26.1495 O   0  0  0  0  0  0  0  0  0  0  0  0
    3.1234  -51.9805  -27.7840 O   0  0  0  0  0  0  0  0  0  0  0  0
    3.9826  -51.9432  -27.2537 H   0  0  0  0  0  0  0  0  0  0  0  0
   -1.5416  -53.7276  -20.5608 C   0  0  0  0  0  0  0  0  0  0  0  0
   -0.1477  -53.7729  -19.9518 C   0  0  0  0  0  0  0  0  0  0  0  0
    1.7418  -51.3399  -20.6398 C   0  0  0  0  0  0  0  0  0  0  0  0
    0.8422  -51.4642  -19.4630 C   0  0  0  0  0  0  0  0  0  0  0  0
    0.6828  -50.5888  -18.5120 O   0  0  0  0  0  0  0  0  0  0  0  0
   -0.1796  -50.9993  -17.6255 C   0  0  0  0  0  0  0  0  0  0  0  0
   -0.6023  -52.2088  -18.0257 N   0  0  0  0  0  0  0  0  0  0  0  0
    0.0123  -52.5407  -19.1740 C   0  0  0  0  0  0  0  0  0  0  0  0
   -0.6117  -50.2951  -16.4275 C   0  0  0  0  0  0  0  0  0  0  0  0
   -0.2439  -49.0027  -16.1239 C   0  0  0  0  0  0  0  0  0  0  0  0
   -0.6734  -48.3619  -14.9796 C   0  0  0  0  0  0  0  0  0  0  0  0
   -1.5008  -49.0008  -14.0804 C   0  0  0  0  0  0  0  0  0  0  0  0
   -1.8916  -50.3023  -14.3532 C   0  0  0  0  0  0  0  0  0  0  0  0
   -2.9483  -51.1631  -13.2366 Cl  0  0  0  0  0  0  0  0  0  0  0  0
   -1.4510  -50.9228  -15.5012 C   0  0  0  0  0  0  0  0  0  0  0  0
 20 21  1  0  0  0
 21 22  1  0  0  0
 22 23  1  0  0  0
 23 26  1  0  0  0
 26 27  2  0  0  0
 27 28  1  0  0  0
 28 29  2  0  0  0
 29 30  1  0  0  0
 30 31  1  0  0  0
 30 32  2  0  0  0
 23 24  2  0  0  0
 24 25  1  0  0  0
 25 19  1  0  0  0
 19 18  1  0  0  0
 18  1  1  0  0  0
  1  2  1  0  0  0
  2  3  2  0  0  0
  3  4  1  0  0  0
  4  5  2  0  0  0
  5  8  1  0  0  0
  8  9  1  0  0  0
  9 14  1  0  0  0
 14 15  2  0  0  0
 14 16  1  0  0  0
  9 10  1  0  0  0
 10 11  1  0  0  0
 11 12  1  0  0  0
 12 13  1  0  0  0
  5  6  1  0  0  0
  6  7  2  0  0  0
 25 21  2  0  0  0
  7  2  1  0  0  0
 32 26  1  0  0  0
 13  9  1  0  0  0
 16 17  1  0  0  0
M  END
> <minimizedAffinity>
-7.97356

> <CNNscore>
0.8043341041

> <CNNaffinity>
6.8775072098

> <CNN_VS>
5.5318136215

> <CNNaffinity_variance>
0.0553942248

$$$$
[H]OC(=O)C1(C([H])([H])c2c([H])nc(OC([H])([H])C([H])([H])c3nc(-c4c([H])c([H])c([H])c(Cl)c4[H])oc3C([H])([H])[H])c([H])c2[H])OC([H])([H])C([H])([H])C1([H])[H]


 32 35  0  0  0  0  0  0  0  0999 V2000
   -1.0898  -54.3150  -21.2149 O   0  0  0  0  0  0  0  0  0  0  0  0
   -0.7202  -54.3027  -22.5486 C   0  0  0  0  0  0  0  0  0  0  0  0
   -1.2451  -55.2783  -23.4122 C   0  0  0  0  0  0  0  0  0  0  0  0
   -0.8935  -55.2901  -24.7485 C   0  0  0  0  0  0  0  0  0  0  0  0
   -0.0257  -54.3577  -25.2792 C   0  0  0  0  0  0  0  0  0  0  0  0
    0.4579  -53.4299  -24.3969 C   0  0  0  0  0  0  0  0  0  0  0  0
    0.1121  -53.4250  -23.1023 N   0  0  0  0  0  0  0  0  0  0  0  0
    0.3416  -54.3710  -26.6949 C   0  0  0  0  0  0  0  0  0  0  0  0
    0.6775  -53.0712  -27.3290 C   0  0  0  0  0  0  0  0  0  0  0  0
    0.3652  -53.1036  -28.8176 C   0  0  0  0  0  0  0  0  0  0  0  0
   -1.1453  -52.9810  -28.7774 C   0  0  0  0  0  0  0  0  0  0  0  0
   -1.3648  -52.1909  -27.5340 C   0  0  0  0  0  0  0  0  0  0  0  0
   -0.2011  -52.1019  -26.8125 O   0  0  0  0  0  0  0  0  0  0  0  0
    2.0467  -52.5719  -27.0856 C   0  0  0  0  0  0  0  0  0  0  0  0
    2.2551  -51.3743  -26.6826 O   0  0  0  0  0  0  0  0  0  0  0  0
    3.1992  -53.3192  -27.2641 O   0  0  0  0  0  0  0  0  0  0  0  0
    3.9080  -53.2585  -26.5467 H   0  0  0  0  0  0  0  0  0  0  0  0
   -1.5323  -53.2308  -20.4574 C   0  0  0  0  0  0  0  0  0  0  0  0
   -0.8386  -53.2523  -19.1031 C   0  0  0  0  0  0  0  0  0  0  0  0
   -0.1676  -50.7661  -17.2780 C   0  0  0  0  0  0  0  0  0  0  0  0
    0.6354  -51.2748  -18.4208 C   0  0  0  0  0  0  0  0  0  0  0  0
    1.7539  -50.7776  -18.8658 O   0  0  0  0  0  0  0  0  0  0  0  0
    2.2065  -51.4562  -19.8821 C   0  0  0  0  0  0  0  0  0  0  0  0
    1.3313  -52.4488  -20.1073 N   0  0  0  0  0  0  0  0  0  0  0  0
    0.3296  -52.3738  -19.2144 C   0  0  0  0  0  0  0  0  0  0  0  0
    3.4234  -51.2005  -20.6382 C   0  0  0  0  0  0  0  0  0  0  0  0
    4.4466  -50.3929  -20.1926 C   0  0  0  0  0  0  0  0  0  0  0  0
    5.5899  -50.1725  -20.9334 C   0  0  0  0  0  0  0  0  0  0  0  0
    5.7553  -50.7616  -22.1692 C   0  0  0  0  0  0  0  0  0  0  0  0
    4.7459  -51.5809  -22.6499 C   0  0  0  0  0  0  0  0  0  0  0  0
    4.9082  -52.3576  -24.2230 Cl  0  0  0  0  0  0  0  0  0  0  0  0
    3.6133  -51.7869  -21.8937 C   0  0  0  0  0  0  0  0  0  0  0  0
 20 21  1  0  0  0
 21 22  1  0  0  0
 22 23  1  0  0  0
 23 26  1  0  0  0
 26 27  2  0  0  0
 27 28  1  0  0  0
 28 29  2  0  0  0
 29 30  1  0  0  0
 30 31  1  0  0  0
 30 32  2  0  0  0
 23 24  2  0  0  0
 24 25  1  0  0  0
 25 19  1  0  0  0
 19 18  1  0  0  0
 18  1  1  0  0  0
  1  2  1  0  0  0
  2  3  2  0  0  0
  3  4  1  0  0  0
  4  5  2  0  0  0
  5  8  1  0  0  0
  8  9  1  0  0  0
  9 14  1  0  0  0
 14 15  2  0  0  0
 14 16  1  0  0  0
  9 10  1  0  0  0
 10 11  1  0  0  0
 11 12  1  0  0  0
 12 13  1  0  0  0
  5  6  1  0  0  0
  6  7  2  0  0  0
 25 21  2  0  0  0
  7  2  1  0  0  0
 32 26  1  0  0  0
 13  9  1  0  0  0
 16 17  1  0  0  0
M  END
> <minimizedAffinity>
-7.99097

> <CNNscore>
0.7737104893

> <CNNaffinity>
7.2292380333

> <CNN_VS>
5.5933370590

> <CNNaffinity_variance>
0.1320216954

$$$$
[H]OC(=O)C1(C([H])([H])c2c([H])nc(OC([H])([H])C([H])([H])c3nc(-c4c([H])c([H])c([H])c(Cl)c4[H])oc3C([H])([H])[H])c([H])c2[H])OC([H])([H])C([H])([H])C1([H])[H]


 32 35  0  0  0  0  0  0  0  0999 V2000
   -1.1591  -54.3326  -21.0142 O   0  0  0  0  0  0  0  0  0  0  0  0
   -0.6730  -54.1947  -22.3027 C   0  0  0  0  0  0  0  0  0  0  0  0
   -1.2073  -54.9971  -23.3243 C   0  0  0  0  0  0  0  0  0  0  0  0
   -0.7411  -54.8808  -24.6198 C   0  0  0  0  0  0  0  0  0  0  0  0
    0.2531  -53.9848  -24.9560 C   0  0  0  0  0  0  0  0  0  0  0  0
    0.7404  -53.2276  -23.9253 C   0  0  0  0  0  0  0  0  0  0  0  0
    0.2830  -53.3463  -22.6715 N   0  0  0  0  0  0  0  0  0  0  0  0
    0.7419  -53.8619  -26.3291 C   0  0  0  0  0  0  0  0  0  0  0  0
    0.6652  -52.5236  -26.9674 C   0  0  0  0  0  0  0  0  0  0  0  0
    0.2595  -52.6484  -28.4284 C   0  0  0  0  0  0  0  0  0  0  0  0
   -1.2204  -52.9377  -28.2720 C   0  0  0  0  0  0  0  0  0  0  0  0
   -1.5483  -52.2284  -27.0040 C   0  0  0  0  0  0  0  0  0  0  0  0
   -0.3997  -51.8242  -26.3716 O   0  0  0  0  0  0  0  0  0  0  0  0
    1.8636  -51.6719  -26.8212 C   0  0  0  0  0  0  0  0  0  0  0  0
    1.9092  -50.7331  -25.9511 O   0  0  0  0  0  0  0  0  0  0  0  0
    3.0140  -51.7961  -27.5827 O   0  0  0  0  0  0  0  0  0  0  0  0
    3.8993  -51.7449  -27.0986 H   0  0  0  0  0  0  0  0  0  0  0  0
   -1.4640  -53.3077  -20.1189 C   0  0  0  0  0  0  0  0  0  0  0  0
   -0.4144  -53.2792  -19.0174 C   0  0  0  0  0  0  0  0  0  0  0  0
   -0.6439  -51.2629  -16.5998 C   0  0  0  0  0  0  0  0  0  0  0  0
    0.0088  -51.0107  -17.9113 C   0  0  0  0  0  0  0  0  0  0  0  0
    0.5958  -49.9106  -18.2872 O   0  0  0  0  0  0  0  0  0  0  0  0
    1.0684  -50.0118  -19.4975 C   0  0  0  0  0  0  0  0  0  0  0  0
    0.7705  -51.2475  -19.9289 N   0  0  0  0  0  0  0  0  0  0  0  0
    0.1057  -51.9096  -18.9666 C   0  0  0  0  0  0  0  0  0  0  0  0
    1.7832  -48.9919  -20.2503 C   0  0  0  0  0  0  0  0  0  0  0  0
    1.6974  -48.8480  -21.6177 C   0  0  0  0  0  0  0  0  0  0  0  0
    2.3869  -47.8679  -22.3021 C   0  0  0  0  0  0  0  0  0  0  0  0
    3.2024  -46.9798  -21.6329 C   0  0  0  0  0  0  0  0  0  0  0  0
    3.3130  -47.0945  -20.2561 C   0  0  0  0  0  0  0  0  0  0  0  0
    4.3417  -45.9844  -19.3539 Cl  0  0  0  0  0  0  0  0  0  0  0  0
    2.6159  -48.0802  -19.5933 C   0  0  0  0  0  0  0  0  0  0  0  0
 20 21  1  0  0  0
 21 22  1  0  0  0
 22 23  1  0  0  0
 23 26  1  0  0  0
 26 27  2  0  0  0
 27 28  1  0  0  0
 28 29  2  0  0  0
 29 30  1  0  0  0
 30 31  1  0  0  0
 30 32  2  0  0  0
 23 24  2  0  0  0
 24 25  1  0  0  0
 25 19  1  0  0  0
 19 18  1  0  0  0
 18  1  1  0  0  0
  1  2  1  0  0  0
  2  3  2  0  0  0
  3  4  1  0  0  0
  4  5  2  0  0  0
  5  8  1  0  0  0
  8  9  1  0  0  0
  9 14  1  0  0  0
 14 15  2  0  0  0
 14 16  1  0  0  0
  9 10  1  0  0  0
 10 11  1  0  0  0
 11 12  1  0  0  0
 12 13  1  0  0  0
  5  6  1  0  0  0
  6  7  2  0  0  0
 25 21  2  0  0  0
  7  2  1  0  0  0
 32 26  1  0  0  0
 13  9  1  0  0  0
 16 17  1  0  0  0
M  END
> <minimizedAffinity>
-7.51758

> <CNNscore>
0.7619732022

> <CNNaffinity>
7.0788521767

> <CNN_VS>
5.3938956261

> <CNNaffinity_variance>
0.1363001168

$$$$
[H]OC(=O)C1(C([H])([H])c2c([H])nc(OC([H])([H])C([H])([H])c3nc(-c4c([H])c([H])c([H])c(Cl)c4[H])oc3C([H])([H])[H])c([H])c2[H])OC([H])([H])C([H])([H])C1([H])[H]


 32 35  0  0  0  0  0  0  0  0999 V2000
   -1.7538  -54.7397  -21.6820 O   0  0  0  0  0  0  0  0  0  0  0  0
   -1.1427  -54.6093  -22.9170 C   0  0  0  0  0  0  0  0  0  0  0  0
   -0.4187  -53.4396  -23.2011 C   0  0  0  0  0  0  0  0  0  0  0  0
    0.2016  -53.2823  -24.4257 C   0  0  0  0  0  0  0  0  0  0  0  0
    0.1352  -54.2539  -25.4034 C   0  0  0  0  0  0  0  0  0  0  0  0
   -0.5820  -55.3729  -25.0776 C   0  0  0  0  0  0  0  0  0  0  0  0
   -1.1808  -55.5181  -23.8877 N   0  0  0  0  0  0  0  0  0  0  0  0
    0.7960  -54.0855  -26.6974 C   0  0  0  0  0  0  0  0  0  0  0  0
    0.5996  -52.7954  -27.4055 C   0  0  0  0  0  0  0  0  0  0  0  0
    0.9789  -51.6273  -26.5075 C   0  0  0  0  0  0  0  0  0  0  0  0
    2.4907  -51.7209  -26.5700 C   0  0  0  0  0  0  0  0  0  0  0  0
    2.7152  -52.3016  -27.9231 C   0  0  0  0  0  0  0  0  0  0  0  0
    1.5298  -52.7379  -28.4588 O   0  0  0  0  0  0  0  0  0  0  0  0
   -0.7336  -52.5893  -28.0082 C   0  0  0  0  0  0  0  0  0  0  0  0
   -0.8722  -52.4116  -29.2690 O   0  0  0  0  0  0  0  0  0  0  0  0
   -1.9224  -52.5659  -27.2978 O   0  0  0  0  0  0  0  0  0  0  0  0
   -2.7062  -53.0708  -27.6870 H   0  0  0  0  0  0  0  0  0  0  0  0
   -1.5819  -53.9155  -20.5702 C   0  0  0  0  0  0  0  0  0  0  0  0
   -0.1289  -53.9790  -20.1223 C   0  0  0  0  0  0  0  0  0  0  0  0
    1.9765  -51.7609  -20.9037 C   0  0  0  0  0  0  0  0  0  0  0  0
    1.0683  -51.7520  -19.7270 C   0  0  0  0  0  0  0  0  0  0  0  0
    0.9891  -50.8260  -18.8147 O   0  0  0  0  0  0  0  0  0  0  0  0
    0.0919  -51.1177  -17.9156 C   0  0  0  0  0  0  0  0  0  0  0  0
   -0.4397  -52.2993  -18.2663 N   0  0  0  0  0  0  0  0  0  0  0  0
    0.1428  -52.7346  -19.3966 C   0  0  0  0  0  0  0  0  0  0  0  0
   -0.2748  -50.3265  -16.7505 C   0  0  0  0  0  0  0  0  0  0  0  0
   -1.3149  -50.6447  -15.9050 C   0  0  0  0  0  0  0  0  0  0  0  0
   -1.6357  -49.8740  -14.8061 C   0  0  0  0  0  0  0  0  0  0  0  0
   -0.9160  -48.7365  -14.5066 C   0  0  0  0  0  0  0  0  0  0  0  0
    0.1378  -48.3853  -15.3356 C   0  0  0  0  0  0  0  0  0  0  0  0
    1.0890  -46.9414  -14.9968 Cl  0  0  0  0  0  0  0  0  0  0  0  0
    0.4405  -49.1689  -16.4270 C   0  0  0  0  0  0  0  0  0  0  0  0
 20 21  1  0  0  0
 21 22  1  0  0  0
 22 23  1  0  0  0
 23 26  1  0  0  0
 26 27  2  0  0  0
 27 28  1  0  0  0
 28 29  2  0  0  0
 29 30  1  0  0  0
 30 31  1  0  0  0
 30 32  2  0  0  0
 23 24  2  0  0  0
 24 25  1  0  0  0
 25 19  1  0  0  0
 19 18  1  0  0  0
 18  1  1  0  0  0
  1  2  1  0  0  0
  2  3  2  0  0  0
  3  4  1  0  0  0
  4  5  2  0  0  0
  5  8  1  0  0  0
  8  9  1  0  0  0
  9 14  1  0  0  0
 14 15  2  0  0  0
 14 16  1  0  0  0
  9 10  1  0  0  0
 10 11  1  0  0  0
 11 12  1  0  0  0
 12 13  1  0  0  0
  5  6  1  0  0  0
  6  7  2  0  0  0
 25 21  2  0  0  0
  7  2  1  0  0  0
 32 26  1  0  0  0
 13  9  1  0  0  0
 16 17  1  0  0  0
M  END
> <minimizedAffinity>
-7.99756

> <CNNscore>
0.5677971840

> <CNNaffinity>
6.7222785950

> <CNN_VS>
3.8168909550

> <CNNaffinity_variance>
0.0431335643

$$$$
[H]OC(=O)C1(C([H])([H])c2c([H])nc(OC([H])([H])C([H])([H])c3nc(-c4c([H])c([H])c([H])c(Cl)c4[H])oc3C([H])([H])[H])c([H])c2[H])OC([H])([H])C([H])([H])C1([H])[H]


 32 35  0  0  0  0  0  0  0  0999 V2000
    1.3737  -53.4411  -27.0608 O   0  0  0  0  0  0  0  0  0  0  0  0
    2.3044  -52.7114  -26.3418 C   0  0  0  0  0  0  0  0  0  0  0  0
    2.4418  -51.3373  -26.5987 C   0  0  0  0  0  0  0  0  0  0  0  0
    3.3628  -50.5841  -25.8961 C   0  0  0  0  0  0  0  0  0  0  0  0
    4.1720  -51.1441  -24.9287 C   0  0  0  0  0  0  0  0  0  0  0  0
    3.9998  -52.4852  -24.7170 C   0  0  0  0  0  0  0  0  0  0  0  0
    3.1043  -53.2088  -25.4025 N   0  0  0  0  0  0  0  0  0  0  0  0
    5.1436  -50.3431  -24.1844 C   0  0  0  0  0  0  0  0  0  0  0  0
    4.6276  -49.4771  -23.0944 C   0  0  0  0  0  0  0  0  0  0  0  0
    3.7122  -50.2660  -22.1700 C   0  0  0  0  0  0  0  0  0  0  0  0
    4.7399  -51.0642  -21.3921 C   0  0  0  0  0  0  0  0  0  0  0  0
    5.9201  -50.1557  -21.4041 C   0  0  0  0  0  0  0  0  0  0  0  0
    5.7163  -49.1187  -22.2792 O   0  0  0  0  0  0  0  0  0  0  0  0
    3.9884  -48.2160  -23.5232 C   0  0  0  0  0  0  0  0  0  0  0  0
    2.9922  -47.7257  -22.8848 O   0  0  0  0  0  0  0  0  0  0  0  0
    4.3851  -47.4663  -24.6182 O   0  0  0  0  0  0  0  0  0  0  0  0
    4.4427  -46.4646  -24.4992 H   0  0  0  0  0  0  0  0  0  0  0  0
    0.3069  -54.1776  -26.5464 C   0  0  0  0  0  0  0  0  0  0  0  0
   -0.7032  -53.2245  -25.9243 C   0  0  0  0  0  0  0  0  0  0  0  0
   -1.0849  -55.9124  -24.3143 C   0  0  0  0  0  0  0  0  0  0  0  0
   -0.7748  -54.5726  -23.7503 C   0  0  0  0  0  0  0  0  0  0  0  0
   -0.6102  -54.2792  -22.4921 O   0  0  0  0  0  0  0  0  0  0  0  0
   -0.3483  -53.0133  -22.3278 C   0  0  0  0  0  0  0  0  0  0  0  0
   -0.3428  -52.4560  -23.5490 N   0  0  0  0  0  0  0  0  0  0  0  0
   -0.6057  -53.3970  -24.4718 C   0  0  0  0  0  0  0  0  0  0  0  0
   -0.1064  -52.3215  -21.0705 C   0  0  0  0  0  0  0  0  0  0  0  0
   -0.3720  -52.8658  -19.8332 C   0  0  0  0  0  0  0  0  0  0  0  0
   -0.1286  -52.1838  -18.6584 C   0  0  0  0  0  0  0  0  0  0  0  0
    0.3985  -50.9097  -18.6775 C   0  0  0  0  0  0  0  0  0  0  0  0
    0.6785  -50.3300  -19.9050 C   0  0  0  0  0  0  0  0  0  0  0  0
    1.3531  -48.7043  -19.9842 Cl  0  0  0  0  0  0  0  0  0  0  0  0
    0.4276  -51.0287  -21.0650 C   0  0  0  0  0  0  0  0  0  0  0  0
 20 21  1  0  0  0
 21 22  1  0  0  0
 22 23  1  0  0  0
 23 26  1  0  0  0
 26 27  2  0  0  0
 27 28  1  0  0  0
 28 29  2  0  0  0
 29 30  1  0  0  0
 30 31  1  0  0  0
 30 32  2  0  0  0
 23 24  2  0  0  0
 24 25  1  0  0  0
 25 19  1  0  0  0
 19 18  1  0  0  0
 18  1  1  0  0  0
  1  2  1  0  0  0
  2  3  2  0  0  0
  3  4  1  0  0  0
  4  5  2  0  0  0
  5  8  1  0  0  0
  8  9  1  0  0  0
  9 14  1  0  0  0
 14 15  2  0  0  0
 14 16  1  0  0  0
  9 10  1  0  0  0
 10 11  1  0  0  0
 11 12  1  0  0  0
 12 13  1  0  0  0
  5  6  1  0  0  0
  6  7  2  0  0  0
 25 21  2  0  0  0
  7  2  1  0  0  0
 32 26  1  0  0  0
 13  9  1  0  0  0
 16 17  1  0  0  0
M  END
> <minimizedAffinity>
-6.93820

> <CNNscore>
0.5559906363

> <CNNaffinity>
6.7698822021

> <CNN_VS>
3.7639911175

> <CNNaffinity_variance>
0.1309817135

$$$$
[H]OC(=O)C1(C([H])([H])c2c([H])nc(OC([H])([H])C([H])([H])c3nc(-c4c([H])c([H])c([H])c(Cl)c4[H])oc3C([H])([H])[H])c([H])c2[H])OC([H])([H])C([H])([H])C1([H])[H]


 32 35  0  0  0  0  0  0  0  0999 V2000
   -1.3353  -54.5192  -21.7687 O   0  0  0  0  0  0  0  0  0  0  0  0
   -0.8734  -53.9306  -22.9331 C   0  0  0  0  0  0  0  0  0  0  0  0
   -0.3840  -52.6148  -22.8861 C   0  0  0  0  0  0  0  0  0  0  0  0
    0.0835  -52.0022  -24.0331 C   0  0  0  0  0  0  0  0  0  0  0  0
    0.0878  -52.6495  -25.2518 C   0  0  0  0  0  0  0  0  0  0  0  0
   -0.3995  -53.9283  -25.2442 C   0  0  0  0  0  0  0  0  0  0  0  0
   -0.8511  -54.5156  -24.1277 N   0  0  0  0  0  0  0  0  0  0  0  0
    0.5866  -51.9992  -26.4633 C   0  0  0  0  0  0  0  0  0  0  0  0
    1.7631  -52.6078  -27.1340 C   0  0  0  0  0  0  0  0  0  0  0  0
    2.8187  -51.5523  -27.4281 C   0  0  0  0  0  0  0  0  0  0  0  0
    3.3947  -51.3551  -26.0397 C   0  0  0  0  0  0  0  0  0  0  0  0
    3.1941  -52.6952  -25.4215 C   0  0  0  0  0  0  0  0  0  0  0  0
    2.3840  -53.4702  -26.2126 O   0  0  0  0  0  0  0  0  0  0  0  0
    1.4713  -53.4148  -28.3367 C   0  0  0  0  0  0  0  0  0  0  0  0
    1.7706  -54.6589  -28.3905 O   0  0  0  0  0  0  0  0  0  0  0  0
    0.8698  -52.9258  -29.4847 O   0  0  0  0  0  0  0  0  0  0  0  0
    0.1469  -53.4911  -29.9072 H   0  0  0  0  0  0  0  0  0  0  0  0
   -1.5566  -53.8920  -20.5429 C   0  0  0  0  0  0  0  0  0  0  0  0
   -0.2935  -53.9861  -19.6994 C   0  0  0  0  0  0  0  0  0  0  0  0
   -1.1379  -52.4557  -17.0711 C   0  0  0  0  0  0  0  0  0  0  0  0
   -0.2984  -51.9281  -18.1785 C   0  0  0  0  0  0  0  0  0  0  0  0
    0.2304  -50.7402  -18.2534 O   0  0  0  0  0  0  0  0  0  0  0  0
    0.9119  -50.5901  -19.3540 C   0  0  0  0  0  0  0  0  0  0  0  0
    0.8190  -51.7465  -20.0293 N   0  0  0  0  0  0  0  0  0  0  0  0
    0.0689  -52.6148  -19.3295 C   0  0  0  0  0  0  0  0  0  0  0  0
    1.6387  -49.4046  -19.7833 C   0  0  0  0  0  0  0  0  0  0  0  0
    1.6285  -48.9257  -21.0750 C   0  0  0  0  0  0  0  0  0  0  0  0
    2.3273  -47.7961  -21.4495 C   0  0  0  0  0  0  0  0  0  0  0  0
    3.0757  -47.0913  -20.5304 C   0  0  0  0  0  0  0  0  0  0  0  0
    3.1092  -47.5440  -19.2208 C   0  0  0  0  0  0  0  0  0  0  0  0
    4.0501  -46.6793  -18.0078 Cl  0  0  0  0  0  0  0  0  0  0  0  0
    2.4042  -48.6737  -18.8690 C   0  0  0  0  0  0  0  0  0  0  0  0
 20 21  1  0  0  0
 21 22  1  0  0  0
 22 23  1  0  0  0
 23 26  1  0  0  0
 26 27  2  0  0  0
 27 28  1  0  0  0
 28 29  2  0  0  0
 29 30  1  0  0  0
 30 31  1  0  0  0
 30 32  2  0  0  0
 23 24  2  0  0  0
 24 25  1  0  0  0
 25 19  1  0  0  0
 19 18  1  0  0  0
 18  1  1  0  0  0
  1  2  1  0  0  0
  2  3  2  0  0  0
  3  4  1  0  0  0
  4  5  2  0  0  0
  5  8  1  0  0  0
  8  9  1  0  0  0
  9 14  1  0  0  0
 14 15  2  0  0  0
 14 16  1  0  0  0
  9 10  1  0  0  0
 10 11  1  0  0  0
 11 12  1  0  0  0
 12 13  1  0  0  0
  5  6  1  0  0  0
  6  7  2  0  0  0
 25 21  2  0  0  0
  7  2  1  0  0  0
 32 26  1  0  0  0
 13  9  1  0  0  0
 16 17  1  0  0  0
M  END
> <minimizedAffinity>
-7.87085

> <CNNscore>
0.5011829734

> <CNNaffinity>
6.9761900902

> <CNN_VS>
3.4963476658

> <CNNaffinity_variance>
0.1858362257

$$$$
[H]OC(=O)C1(C([H])([H])c2c([H])nc(OC([H])([H])C([H])([H])c3nc(-c4c([H])c([H])c([H])c(Cl)c4[H])oc3C([H])([H])[H])c([H])c2[H])OC([H])([H])C([H])([H])C1([H])[H]


 32 35  0  0  0  0  0  0  0  0999 V2000
   -0.4403  -53.1501  -21.1457 O   0  0  0  0  0  0  0  0  0  0  0  0
   -0.0901  -53.3256  -22.4731 C   0  0  0  0  0  0  0  0  0  0  0  0
   -0.8374  -54.2126  -23.2655 C   0  0  0  0  0  0  0  0  0  0  0  0
   -0.5104  -54.4075  -24.5938 C   0  0  0  0  0  0  0  0  0  0  0  0
    0.5476  -53.7480  -25.1854 C   0  0  0  0  0  0  0  0  0  0  0  0
    1.2436  -52.8963  -24.3711 C   0  0  0  0  0  0  0  0  0  0  0  0
    0.9203  -52.7126  -23.0838 N   0  0  0  0  0  0  0  0  0  0  0  0
    0.8889  -53.9541  -26.5927 C   0  0  0  0  0  0  0  0  0  0  0  0
    0.9164  -52.7596  -27.4741 C   0  0  0  0  0  0  0  0  0  0  0  0
    0.3877  -53.1022  -28.8589 C   0  0  0  0  0  0  0  0  0  0  0  0
   -1.0991  -53.1674  -28.5698 C   0  0  0  0  0  0  0  0  0  0  0  0
   -1.2452  -52.1984  -27.4481 C   0  0  0  0  0  0  0  0  0  0  0  0
   -0.0127  -51.8321  -26.9692 O   0  0  0  0  0  0  0  0  0  0  0  0
    2.2118  -52.0544  -27.5610 C   0  0  0  0  0  0  0  0  0  0  0  0
    2.4418  -51.0001  -26.8712 O   0  0  0  0  0  0  0  0  0  0  0  0
    3.2673  -52.4458  -28.3682 O   0  0  0  0  0  0  0  0  0  0  0  0
    4.1928  -52.4292  -27.9633 H   0  0  0  0  0  0  0  0  0  0  0  0
    0.3289  -53.4676  -20.0266 C   0  0  0  0  0  0  0  0  0  0  0  0
    0.9353  -52.1919  -19.4601 C   0  0  0  0  0  0  0  0  0  0  0  0
    1.4873  -49.8261  -17.4449 C   0  0  0  0  0  0  0  0  0  0  0  0
    0.3331  -50.7625  -17.4246 C   0  0  0  0  0  0  0  0  0  0  0  0
   -0.6475  -50.7673  -16.5676 O   0  0  0  0  0  0  0  0  0  0  0  0
   -1.5017  -51.7171  -16.8255 C   0  0  0  0  0  0  0  0  0  0  0  0
   -1.0482  -52.3632  -17.9112 N   0  0  0  0  0  0  0  0  0  0  0  0
    0.1005  -51.7986  -18.3211 C   0  0  0  0  0  0  0  0  0  0  0  0
   -2.7171  -52.0303  -16.0889 C   0  0  0  0  0  0  0  0  0  0  0  0
   -3.6032  -53.0187  -16.4577 C   0  0  0  0  0  0  0  0  0  0  0  0
   -4.7467  -53.2926  -15.7355 C   0  0  0  0  0  0  0  0  0  0  0  0
   -5.0525  -52.5757  -14.5979 C   0  0  0  0  0  0  0  0  0  0  0  0
   -4.1835  -51.5732  -14.1965 C   0  0  0  0  0  0  0  0  0  0  0  0
   -4.5281  -50.6281  -12.7500 Cl  0  0  0  0  0  0  0  0  0  0  0  0
   -3.0479  -51.3167  -14.9324 C   0  0  0  0  0  0  0  0  0  0  0  0
 20 21  1  0  0  0
 21 22  1  0  0  0
 22 23  1  0  0  0
 23 26  1  0  0  0
 26 27  2  0  0  0
 27 28  1  0  0  0
 28 29  2  0  0  0
 29 30  1  0  0  0
 30 31  1  0  0  0
 30 32  2  0  0  0
 23 24  2  0  0  0
 24 25  1  0  0  0
 25 19  1  0  0  0
 19 18  1  0  0  0
 18  1  1  0  0  0
  1  2  1  0  0  0
  2  3  2  0  0  0
  3  4  1  0  0  0
  4  5  2  0  0  0
  5  8  1  0  0  0
  8  9  1  0  0  0
  9 14  1  0  0  0
 14 15  2  0  0  0
 14 16  1  0  0  0
  9 10  1  0  0  0
 10 11  1  0  0  0
 11 12  1  0  0  0
 12 13  1  0  0  0
  5  6  1  0  0  0
  6  7  2  0  0  0
 25 21  2  0  0  0
  7  2  1  0  0  0
 32 26  1  0  0  0
 13  9  1  0  0  0
 16 17  1  0  0  0
M  END
> <minimizedAffinity>
-7.78277

> <CNNscore>
0.4558456838

> <CNNaffinity>
6.5219392776

> <CNN_VS>
2.9729979038

> <CNNaffinity_variance>
0.1033351570

$$$$
[H]OC(=O)C1(C([H])([H])c2c([H])nc(OC([H])([H])C([H])([H])c3nc(-c4c([H])c([H])c([H])c(Cl)c4[H])oc3C([H])([H])[H])c([H])c2[H])OC([H])([H])C([H])([H])C1([H])[H]


 32 35  0  0  0  0  0  0  0  0999 V2000
    0.7119  -51.7948  -19.9660 O   0  0  0  0  0  0  0  0  0  0  0  0
    0.0084  -51.8200  -18.7744 C   0  0  0  0  0  0  0  0  0  0  0  0
    0.1344  -50.7414  -17.8835 C   0  0  0  0  0  0  0  0  0  0  0  0
   -0.5562  -50.7397  -16.6866 C   0  0  0  0  0  0  0  0  0  0  0  0
   -1.3847  -51.7824  -16.3250 C   0  0  0  0  0  0  0  0  0  0  0  0
   -1.4724  -52.8084  -17.2265 C   0  0  0  0  0  0  0  0  0  0  0  0
   -0.7995  -52.8026  -18.3852 N   0  0  0  0  0  0  0  0  0  0  0  0
   -2.1169  -51.7759  -15.0589 C   0  0  0  0  0  0  0  0  0  0  0  0
   -3.5003  -51.2368  -15.0690 C   0  0  0  0  0  0  0  0  0  0  0  0
   -4.2951  -51.8204  -16.2276 C   0  0  0  0  0  0  0  0  0  0  0  0
   -4.5709  -53.2109  -15.6902 C   0  0  0  0  0  0  0  0  0  0  0  0
   -4.6104  -52.9786  -14.2194 C   0  0  0  0  0  0  0  0  0  0  0  0
   -4.1570  -51.7182  -13.9222 O   0  0  0  0  0  0  0  0  0  0  0  0
   -3.6167  -49.7643  -15.0351 C   0  0  0  0  0  0  0  0  0  0  0  0
   -4.7371  -49.1815  -15.2484 O   0  0  0  0  0  0  0  0  0  0  0  0
   -2.5659  -48.8982  -14.7812 O   0  0  0  0  0  0  0  0  0  0  0  0
   -2.7404  -48.1284  -14.1506 H   0  0  0  0  0  0  0  0  0  0  0  0
    0.2547  -51.3332  -21.2001 C   0  0  0  0  0  0  0  0  0  0  0  0
    1.3600  -50.5332  -21.8740 C   0  0  0  0  0  0  0  0  0  0  0  0
    4.1006  -51.6959  -22.9230 C   0  0  0  0  0  0  0  0  0  0  0  0
    2.8043  -51.6767  -23.6502 C   0  0  0  0  0  0  0  0  0  0  0  0
    2.5797  -52.1353  -24.8484 O   0  0  0  0  0  0  0  0  0  0  0  0
    1.3357  -51.9671  -25.1980 C   0  0  0  0  0  0  0  0  0  0  0  0
    0.7204  -51.3659  -24.1675 N   0  0  0  0  0  0  0  0  0  0  0  0
    1.6034  -51.1642  -23.1746 C   0  0  0  0  0  0  0  0  0  0  0  0
    0.7170  -52.3509  -26.4580 C   0  0  0  0  0  0  0  0  0  0  0  0
    1.4185  -52.8390  -27.5386 C   0  0  0  0  0  0  0  0  0  0  0  0
    0.8010  -53.1966  -28.7198 C   0  0  0  0  0  0  0  0  0  0  0  0
   -0.5648  -53.0770  -28.8672 C   0  0  0  0  0  0  0  0  0  0  0  0
   -1.3033  -52.5893  -27.8005 C   0  0  0  0  0  0  0  0  0  0  0  0
   -3.0514  -52.4175  -27.9375 Cl  0  0  0  0  0  0  0  0  0  0  0  0
   -0.6664  -52.2384  -26.6308 C   0  0  0  0  0  0  0  0  0  0  0  0
 20 21  1  0  0  0
 21 22  1  0  0  0
 22 23  1  0  0  0
 23 26  1  0  0  0
 26 27  2  0  0  0
 27 28  1  0  0  0
 28 29  2  0  0  0
 29 30  1  0  0  0
 30 31  1  0  0  0
 30 32  2  0  0  0
 23 24  2  0  0  0
 24 25  1  0  0  0
 25 19  1  0  0  0
 19 18  1  0  0  0
 18  1  1  0  0  0
  1  2  1  0  0  0
  2  3  2  0  0  0
  3  4  1  0  0  0
  4  5  2  0  0  0
  5  8  1  0  0  0
  8  9  1  0  0  0
  9 14  1  0  0  0
 14 15  2  0  0  0
 14 16  1  0  0  0
  9 10  1  0  0  0
 10 11  1  0  0  0
 11 12  1  0  0  0
 12 13  1  0  0  0
  5  6  1  0  0  0
  6  7  2  0  0  0
 25 21  2  0  0  0
  7  2  1  0  0  0
 32 26  1  0  0  0
 13  9  1  0  0  0
 16 17  1  0  0  0
M  END
> <minimizedAffinity>
-8.04932

> <CNNscore>
0.4261741042

> <CNNaffinity>
6.3869428635

> <CNN_VS>
2.7219495773

> <CNNaffinity_variance>
0.2354569882

$$$$
[H]OC(=O)C([H])([H])c1c([H])c([H])c(Oc2c([H])c([H])c(C(=O)N([H])C([H])(C([H])([H])[H])C([H])([H])[H])c([H])c2N([H])S(=O)(=O)c2c([H])c([H])c(Cl)c([H])c2Cl)c(OC([H])([H])[H])c1[H]


 40 42  0  0  0  0  0  0  0  0999 V2000
   -0.0652  -52.6819  -19.4641 C   0  0  0  0  0  0  0  0  0  0  0  0
   -0.2802  -53.9376  -19.9634 C   0  0  0  0  0  0  0  0  0  0  0  0
   -0.3964  -54.1691  -21.3201 C   0  0  0  0  0  0  0  0  0  0  0  0
   -0.2956  -53.1210  -22.1991 C   0  0  0  0  0  0  0  0  0  0  0  0
   -0.0793  -51.8599  -21.6843 C   0  0  0  0  0  0  0  0  0  0  0  0
    0.0417  -51.5883  -20.3458 C   0  0  0  0  0  0  0  0  0  0  0  0
   -0.4084  -53.3252  -23.6487 C   0  0  0  0  0  0  0  0  0  0  0  0
   -0.7090  -54.4940  -24.0437 O   0  0  0  0  0  0  0  0  0  0  0  0
   -0.1952  -52.2808  -24.5557 N   0  0  0  0  0  0  0  0  0  0  0  0
    0.0455  -51.3288  -24.2596 H   0  0  0  0  0  0  0  0  0  0  0  0
   -0.3198  -52.5411  -25.9816 C   0  0  0  0  0  0  0  0  0  0  0  0
   -1.6841  -52.0150  -26.3929 C   0  0  0  0  0  0  0  0  0  0  0  0
    0.7905  -51.8727  -26.7338 C   0  0  0  0  0  0  0  0  0  0  0  0
    0.2513  -50.2944  -19.7962 N   0  0  0  0  0  0  0  0  0  0  0  0
   -0.2990  -50.0092  -18.9393 H   0  0  0  0  0  0  0  0  0  0  0  0
    1.3805  -49.2349  -20.5291 S   0  0  0  0  0  0  0  0  0  0  0  0
    0.6940  -48.1566  -21.3601 O   0  0  0  0  0  0  0  0  0  0  0  0
    2.1607  -48.5379  -19.4074 O   0  0  0  0  0  0  0  0  0  0  0  0
    2.5120  -50.1398  -21.5036 C   0  0  0  0  0  0  0  0  0  0  0  0
    2.4813  -50.0454  -22.8652 C   0  0  0  0  0  0  0  0  0  0  0  0
    3.4057  -50.8212  -23.5785 C   0  0  0  0  0  0  0  0  0  0  0  0
    4.3091  -51.6453  -22.9611 C   0  0  0  0  0  0  0  0  0  0  0  0
    5.4493  -52.6001  -23.8701 Cl  0  0  0  0  0  0  0  0  0  0  0  0
    4.2947  -51.7015  -21.5898 C   0  0  0  0  0  0  0  0  0  0  0  0
    3.4192  -50.9701  -20.8416 C   0  0  0  0  0  0  0  0  0  0  0  0
    3.3979  -51.0401  -19.0744 Cl  0  0  0  0  0  0  0  0  0  0  0  0
    0.0537  -52.4497  -18.1080 O   0  0  0  0  0  0  0  0  0  0  0  0
   -0.8677  -51.2135  -16.2370 C   0  0  0  0  0  0  0  0  0  0  0  0
   -1.9474  -50.9963  -15.3955 C   0  0  0  0  0  0  0  0  0  0  0  0
   -3.1388  -51.6958  -15.4974 C   0  0  0  0  0  0  0  0  0  0  0  0
   -3.2322  -52.6489  -16.4905 C   0  0  0  0  0  0  0  0  0  0  0  0
   -2.1706  -52.8817  -17.3381 C   0  0  0  0  0  0  0  0  0  0  0  0
   -0.9659  -52.1689  -17.2286 C   0  0  0  0  0  0  0  0  0  0  0  0
    0.2910  -49.0848  -16.3815 C   0  0  0  0  0  0  0  0  0  0  0  0
    0.3087  -50.4746  -16.0887 O   0  0  0  0  0  0  0  0  0  0  0  0
   -4.2907  -51.4519  -14.5866 C   0  0  0  0  0  0  0  0  0  0  0  0
   -4.5741  -49.9969  -14.5104 C   0  0  0  0  0  0  0  0  0  0  0  0
   -5.0367  -49.3151  -15.4462 O   0  0  0  0  0  0  0  0  0  0  0  0
   -4.2935  -49.3658  -13.2889 O   0  0  0  0  0  0  0  0  0  0  0  0
   -4.7503  -49.7014  -12.4552 H   0  0  0  0  0  0  0  0  0  0  0  0
 34 35  1  0  0  0
 35 28  1  0  0  0
 28 29  2  0  0  0
 29 30  1  0  0  0
 30 36  1  0  0  0
 36 37  1  0  0  0
 37 38  2  0  0  0
 37 39  1  0  0  0
 30 31  2  0  0  0
 31 32  1  0  0  0
 32 33  2  0  0  0
 33 27  1  0  0  0
 27  1  1  0  0  0
  1  2  2  0  0  0
  2  3  1  0  0  0
  3  4  2  0  0  0
  4  7  1  0  0  0
  7  8  2  0  0  0
  7  9  1  0  0  0
  9 11  1  0  0  0
 11 12  1  0  0  0
 11 13  1  0  0  0
  4  5  1  0  0  0
  5  6  2  0  0  0
  6 14  1  0  0  0
 14 16  1  0  0  0
 16 17  2  0  0  0
 16 18  2  0  0  0
 16 19  1  0  0  0
 19 20  2  0  0  0
 20 21  1  0  0  0
 21 22  2  0  0  0
 22 23  1  0  0  0
 22 24  1  0  0  0
 24 25  2  0  0  0
 25 26  1  0  0  0
 33 28  1  0  0  0
  6  1  1  0  0  0
 25 19  1  0  0  0
 39 40  1  0  0  0
  9 10  1  0  0  0
 14 15  1  0  0  0
M  END
> <minimizedAffinity>
-8.20071

> <CNNscore>
0.6007017493

> <CNNaffinity>
7.1097555161

> <CNN_VS>
4.2708425522

> <CNNaffinity_variance>
0.0967582762

$$$$
[H]OC(=O)C([H])([H])c1c([H])c([H])c(Oc2c([H])c([H])c(C(=O)N([H])C([H])(C([H])([H])[H])C([H])([H])[H])c([H])c2N([H])S(=O)(=O)c2c([H])c([H])c(Cl)c([H])c2Cl)c(OC([H])([H])[H])c1[H]


 40 42  0  0  0  0  0  0  0  0999 V2000
   -0.0728  -52.6417  -19.6810 C   0  0  0  0  0  0  0  0  0  0  0  0
   -0.5201  -53.6337  -20.5107 C   0  0  0  0  0  0  0  0  0  0  0  0
   -0.4837  -53.5016  -21.8851 C   0  0  0  0  0  0  0  0  0  0  0  0
    0.0110  -52.3510  -22.4441 C   0  0  0  0  0  0  0  0  0  0  0  0
    0.4585  -51.3580  -21.5982 C   0  0  0  0  0  0  0  0  0  0  0  0
    0.4397  -51.4498  -20.2302 C   0  0  0  0  0  0  0  0  0  0  0  0
    0.0716  -52.1730  -23.9003 C   0  0  0  0  0  0  0  0  0  0  0  0
    0.9454  -51.3665  -24.3458 O   0  0  0  0  0  0  0  0  0  0  0  0
   -0.7930  -52.8601  -24.7601 N   0  0  0  0  0  0  0  0  0  0  0  0
   -1.5039  -53.5181  -24.4232 H   0  0  0  0  0  0  0  0  0  0  0  0
   -0.6882  -52.6442  -26.1950 C   0  0  0  0  0  0  0  0  0  0  0  0
   -0.1569  -53.9400  -26.7830 C   0  0  0  0  0  0  0  0  0  0  0  0
   -2.0229  -52.2734  -26.7664 C   0  0  0  0  0  0  0  0  0  0  0  0
    0.8839  -50.4324  -19.3426 N   0  0  0  0  0  0  0  0  0  0  0  0
    0.1636  -49.8278  -18.8588 H   0  0  0  0  0  0  0  0  0  0  0  0
    2.5621  -50.2102  -19.0798 S   0  0  0  0  0  0  0  0  0  0  0  0
    2.8549  -48.9157  -18.3294 O   0  0  0  0  0  0  0  0  0  0  0  0
    3.0562  -51.3766  -18.2149 O   0  0  0  0  0  0  0  0  0  0  0  0
    3.4212  -50.2520  -20.5992 C   0  0  0  0  0  0  0  0  0  0  0  0
    4.3252  -51.2425  -20.8551 C   0  0  0  0  0  0  0  0  0  0  0  0
    4.9919  -51.1938  -22.0872 C   0  0  0  0  0  0  0  0  0  0  0  0
    4.7652  -50.2073  -23.0101 C   0  0  0  0  0  0  0  0  0  0  0  0
    5.6066  -50.1684  -24.5360 Cl  0  0  0  0  0  0  0  0  0  0  0  0
    3.8459  -49.2364  -22.6998 C   0  0  0  0  0  0  0  0  0  0  0  0
    3.1658  -49.2309  -21.5173 C   0  0  0  0  0  0  0  0  0  0  0  0
    1.9806  -47.9814  -21.1142 Cl  0  0  0  0  0  0  0  0  0  0  0  0
   -0.1062  -52.7737  -18.3069 O   0  0  0  0  0  0  0  0  0  0  0  0
   -1.0766  -51.3998  -16.5608 C   0  0  0  0  0  0  0  0  0  0  0  0
   -2.1746  -51.1274  -15.7601 C   0  0  0  0  0  0  0  0  0  0  0  0
   -3.3566  -51.8470  -15.8265 C   0  0  0  0  0  0  0  0  0  0  0  0
   -3.4207  -52.8792  -16.7398 C   0  0  0  0  0  0  0  0  0  0  0  0
   -2.3404  -53.1678  -17.5456 C   0  0  0  0  0  0  0  0  0  0  0  0
   -1.1456  -52.4341  -17.4724 C   0  0  0  0  0  0  0  0  0  0  0  0
   -0.0171  -49.2598  -16.1218 C   0  0  0  0  0  0  0  0  0  0  0  0
    0.0890  -50.6372  -16.4517 O   0  0  0  0  0  0  0  0  0  0  0  0
   -4.5284  -51.5433  -14.9603 C   0  0  0  0  0  0  0  0  0  0  0  0
   -4.9398  -52.7635  -14.2221 C   0  0  0  0  0  0  0  0  0  0  0  0
   -6.0894  -53.2459  -14.2354 O   0  0  0  0  0  0  0  0  0  0  0  0
   -3.9477  -53.4020  -13.4624 O   0  0  0  0  0  0  0  0  0  0  0  0
   -3.1136  -53.7233  -13.9286 H   0  0  0  0  0  0  0  0  0  0  0  0
 34 35  1  0  0  0
 35 28  1  0  0  0
 28 29  2  0  0  0
 29 30  1  0  0  0
 30 36  1  0  0  0
 36 37  1  0  0  0
 37 38  2  0  0  0
 37 39  1  0  0  0
 30 31  2  0  0  0
 31 32  1  0  0  0
 32 33  2  0  0  0
 33 27  1  0  0  0
 27  1  1  0  0  0
  1  2  2  0  0  0
  2  3  1  0  0  0
  3  4  2  0  0  0
  4  7  1  0  0  0
  7  8  2  0  0  0
  7  9  1  0  0  0
  9 11  1  0  0  0
 11 12  1  0  0  0
 11 13  1  0  0  0
  4  5  1  0  0  0
  5  6  2  0  0  0
  6 14  1  0  0  0
 14 16  1  0  0  0
 16 17  2  0  0  0
 16 18  2  0  0  0
 16 19  1  0  0  0
 19 20  2  0  0  0
 20 21  1  0  0  0
 21 22  2  0  0  0
 22 23  1  0  0  0
 22 24  1  0  0  0
 24 25  2  0  0  0
 25 26  1  0  0  0
 33 28  1  0  0  0
  6  1  1  0  0  0
 25 19  1  0  0  0
 39 40  1  0  0  0
  9 10  1  0  0  0
 14 15  1  0  0  0
M  END
> <minimizedAffinity>
-8.13980

> <CNNscore>
0.3137353957

> <CNNaffinity>
6.9188904762

> <CNN_VS>
2.1707007885

> <CNNaffinity_variance>
0.1117856950

$$$$
[H]OC(=O)C([H])([H])c1c([H])c([H])c(Oc2c([H])c([H])c(C(=O)N([H])C([H])(C([H])([H])[H])C([H])([H])[H])c([H])c2N([H])S(=O)(=O)c2c([H])c([H])c(Cl)c([H])c2Cl)c(OC([H])([H])[H])c1[H]


 40 42  0  0  0  0  0  0  0  0999 V2000
   -0.4009  -53.0510  -19.2900 C   0  0  0  0  0  0  0  0  0  0  0  0
   -1.4928  -53.6000  -19.9054 C   0  0  0  0  0  0  0  0  0  0  0  0
   -1.5682  -53.7186  -21.2795 C   0  0  0  0  0  0  0  0  0  0  0  0
   -0.5281  -53.2779  -22.0574 C   0  0  0  0  0  0  0  0  0  0  0  0
    0.5668  -52.7260  -21.4262 C   0  0  0  0  0  0  0  0  0  0  0  0
    0.6806  -52.5903  -20.0665 C   0  0  0  0  0  0  0  0  0  0  0  0
   -0.5668  -53.3901  -23.5209 C   0  0  0  0  0  0  0  0  0  0  0  0
   -1.0480  -54.4616  -24.0035 O   0  0  0  0  0  0  0  0  0  0  0  0
   -0.0960  -52.3642  -24.3482 N   0  0  0  0  0  0  0  0  0  0  0  0
    0.2938  -51.4895  -23.9810 H   0  0  0  0  0  0  0  0  0  0  0  0
   -0.1585  -52.5303  -25.7921 C   0  0  0  0  0  0  0  0  0  0  0  0
   -1.4695  -51.9051  -26.2364 C   0  0  0  0  0  0  0  0  0  0  0  0
    1.0236  -51.8804  -26.4446 C   0  0  0  0  0  0  0  0  0  0  0  0
    1.7946  -52.0125  -19.3992 N   0  0  0  0  0  0  0  0  0  0  0  0
    2.5773  -52.6443  -19.0727 H   0  0  0  0  0  0  0  0  0  0  0  0
    1.8430  -50.3196  -19.1404 S   0  0  0  0  0  0  0  0  0  0  0  0
    0.5163  -49.7859  -18.6119 O   0  0  0  0  0  0  0  0  0  0  0  0
    2.9168  -50.0413  -18.0812 O   0  0  0  0  0  0  0  0  0  0  0  0
    2.2982  -49.4974  -20.6119 C   0  0  0  0  0  0  0  0  0  0  0  0
    1.6090  -48.3955  -21.0295 C   0  0  0  0  0  0  0  0  0  0  0  0
    2.0195  -47.8056  -22.2330 C   0  0  0  0  0  0  0  0  0  0  0  0
    3.0618  -48.2936  -22.9758 C   0  0  0  0  0  0  0  0  0  0  0  0
    3.5541  -47.5421  -24.4695 Cl  0  0  0  0  0  0  0  0  0  0  0  0
    3.7189  -49.4044  -22.5086 C   0  0  0  0  0  0  0  0  0  0  0  0
    3.3655  -50.0218  -21.3446 C   0  0  0  0  0  0  0  0  0  0  0  0
    4.2099  -51.4533  -20.7396 Cl  0  0  0  0  0  0  0  0  0  0  0  0
   -0.3233  -52.9344  -17.9162 O   0  0  0  0  0  0  0  0  0  0  0  0
   -1.1254  -51.6280  -16.0379 C   0  0  0  0  0  0  0  0  0  0  0  0
   -2.1947  -51.2722  -15.2312 C   0  0  0  0  0  0  0  0  0  0  0  0
   -3.4736  -51.7759  -15.4044 C   0  0  0  0  0  0  0  0  0  0  0  0
   -3.6684  -52.6726  -16.4347 C   0  0  0  0  0  0  0  0  0  0  0  0
   -2.6189  -53.0407  -17.2488 C   0  0  0  0  0  0  0  0  0  0  0  0
   -1.3253  -52.5262  -17.0669 C   0  0  0  0  0  0  0  0  0  0  0  0
    0.9529  -51.6230  -14.7826 C   0  0  0  0  0  0  0  0  0  0  0  0
    0.1427  -51.0844  -15.8175 O   0  0  0  0  0  0  0  0  0  0  0  0
   -4.6132  -51.3847  -14.5303 C   0  0  0  0  0  0  0  0  0  0  0  0
   -4.6239  -49.9121  -14.3443 C   0  0  0  0  0  0  0  0  0  0  0  0
   -4.3239  -49.3297  -13.2835 O   0  0  0  0  0  0  0  0  0  0  0  0
   -5.0016  -49.1418  -15.4547 O   0  0  0  0  0  0  0  0  0  0  0  0
   -4.4716  -49.2307  -16.3077 H   0  0  0  0  0  0  0  0  0  0  0  0
 34 35  1  0  0  0
 35 28  1  0  0  0
 28 29  2  0  0  0
 29 30  1  0  0  0
 30 36  1  0  0  0
 36 37  1  0  0  0
 37 38  2  0  0  0
 37 39  1  0  0  0
 30 31  2  0  0  0
 31 32  1  0  0  0
 32 33  2  0  0  0
 33 27  1  0  0  0
 27  1  1  0  0  0
  1  2  2  0  0  0
  2  3  1  0  0  0
  3  4  2  0  0  0
  4  7  1  0  0  0
  7  8  2  0  0  0
  7  9  1  0  0  0
  9 11  1  0  0  0
 11 12  1  0  0  0
 11 13  1  0  0  0
  4  5  1  0  0  0
  5  6  2  0  0  0
  6 14  1  0  0  0
 14 16  1  0  0  0
 16 17  2  0  0  0
 16 18  2  0  0  0
 16 19  1  0  0  0
 19 20  2  0  0  0
 20 21  1  0  0  0
 21 22  2  0  0  0
 22 23  1  0  0  0
 22 24  1  0  0  0
 24 25  2  0  0  0
 25 26  1  0  0  0
 33 28  1  0  0  0
  6  1  1  0  0  0
 25 19  1  0  0  0
 39 40  1  0  0  0
  9 10  1  0  0  0
 14 15  1  0  0  0
M  END
> <minimizedAffinity>
-8.06174

> <CNNscore>
0.2565065920

> <CNNaffinity>
6.8199248314

> <CNN_VS>
1.7493556738

> <CNNaffinity_variance>
0.1034308523

$$$$
[H]OC(=O)C([H])([H])c1c([H])c([H])c(Oc2c([H])c([H])c(C(=O)N([H])C([H])(C([H])([H])[H])C([H])([H])[H])c([H])c2N([H])S(=O)(=O)c2c([H])c([H])c(Cl)c([H])c2Cl)c(OC([H])([H])[H])c1[H]


 40 42  0  0  0  0  0  0  0  0999 V2000
   -0.1749  -53.1031  -19.8450 C   0  0  0  0  0  0  0  0  0  0  0  0
   -0.7107  -54.2455  -20.3742 C   0  0  0  0  0  0  0  0  0  0  0  0
   -0.8501  -54.4178  -21.7376 C   0  0  0  0  0  0  0  0  0  0  0  0
   -0.4447  -53.4249  -22.5926 C   0  0  0  0  0  0  0  0  0  0  0  0
    0.0933  -52.2779  -22.0479 C   0  0  0  0  0  0  0  0  0  0  0  0
    0.2488  -52.0680  -20.7018 C   0  0  0  0  0  0  0  0  0  0  0  0
   -0.5710  -53.5707  -24.0482 C   0  0  0  0  0  0  0  0  0  0  0  0
   -1.0349  -54.6718  -24.4783 O   0  0  0  0  0  0  0  0  0  0  0  0
   -0.1983  -52.5442  -24.9235 N   0  0  0  0  0  0  0  0  0  0  0  0
    0.1756  -51.6461  -24.5989 H   0  0  0  0  0  0  0  0  0  0  0  0
   -0.3448  -52.7444  -26.3570 C   0  0  0  0  0  0  0  0  0  0  0  0
   -1.6516  -52.0767  -26.7489 C   0  0  0  0  0  0  0  0  0  0  0  0
    0.8258  -52.1609  -27.0884 C   0  0  0  0  0  0  0  0  0  0  0  0
    0.7885  -50.8880  -20.1216 N   0  0  0  0  0  0  0  0  0  0  0  0
    0.1254  -50.1631  -19.7302 H   0  0  0  0  0  0  0  0  0  0  0  0
    2.4868  -50.6685  -20.0713 S   0  0  0  0  0  0  0  0  0  0  0  0
    2.8916  -49.5799  -19.0836 O   0  0  0  0  0  0  0  0  0  0  0  0
    3.1127  -51.9871  -19.5996 O   0  0  0  0  0  0  0  0  0  0  0  0
    3.0964  -50.3126  -21.6682 C   0  0  0  0  0  0  0  0  0  0  0  0
    4.0256  -51.1259  -22.2504 C   0  0  0  0  0  0  0  0  0  0  0  0
    4.4839  -50.7601  -23.5236 C   0  0  0  0  0  0  0  0  0  0  0  0
    4.0361  -49.6418  -24.1757 C   0  0  0  0  0  0  0  0  0  0  0  0
    4.6209  -49.2079  -25.7593 Cl  0  0  0  0  0  0  0  0  0  0  0  0
    3.1020  -48.8601  -23.5429 C   0  0  0  0  0  0  0  0  0  0  0  0
    2.6183  -49.1647  -22.3042 C   0  0  0  0  0  0  0  0  0  0  0  0
    1.4147  -48.1597  -21.4859 Cl  0  0  0  0  0  0  0  0  0  0  0  0
   -0.0326  -52.9308  -18.4823 O   0  0  0  0  0  0  0  0  0  0  0  0
   -0.8129  -51.3619  -16.8067 C   0  0  0  0  0  0  0  0  0  0  0  0
   -1.8329  -50.9720  -15.9531 C   0  0  0  0  0  0  0  0  0  0  0  0
   -3.0391  -51.6468  -15.8576 C   0  0  0  0  0  0  0  0  0  0  0  0
   -3.2106  -52.7564  -16.6594 C   0  0  0  0  0  0  0  0  0  0  0  0
   -2.2093  -53.1622  -17.5151 C   0  0  0  0  0  0  0  0  0  0  0  0
   -0.9893  -52.4733  -17.6062 C   0  0  0  0  0  0  0  0  0  0  0  0
    0.3640  -49.2532  -16.5548 C   0  0  0  0  0  0  0  0  0  0  0  0
    0.3818  -50.6397  -16.8626 O   0  0  0  0  0  0  0  0  0  0  0  0
   -4.1262  -51.2167  -14.9363 C   0  0  0  0  0  0  0  0  0  0  0  0
   -4.6174  -52.3808  -14.1574 C   0  0  0  0  0  0  0  0  0  0  0  0
   -5.7936  -52.7942  -14.1666 O   0  0  0  0  0  0  0  0  0  0  0  0
   -3.6730  -53.0473  -13.3618 O   0  0  0  0  0  0  0  0  0  0  0  0
   -2.8550  -53.4354  -13.8051 H   0  0  0  0  0  0  0  0  0  0  0  0
 34 35  1  0  0  0
 35 28  1  0  0  0
 28 29  2  0  0  0
 29 30  1  0  0  0
 30 36  1  0  0  0
 36 37  1  0  0  0
 37 38  2  0  0  0
 37 39  1  0  0  0
 30 31  2  0  0  0
 31 32  1  0  0  0
 32 33  2  0  0  0
 33 27  1  0  0  0
 27  1  1  0  0  0
  1  2  2  0  0  0
  2  3  1  0  0  0
  3  4  2  0  0  0
  4  7  1  0  0  0
  7  8  2  0  0  0
  7  9  1  0  0  0
  9 11  1  0  0  0
 11 12  1  0  0  0
 11 13  1  0  0  0
  4  5  1  0  0  0
  5  6  2  0  0  0
  6 14  1  0  0  0
 14 16  1  0  0  0
 16 17  2  0  0  0
 16 18  2  0  0  0
 16 19  1  0  0  0
 19 20  2  0  0  0
 20 21  1  0  0  0
 21 22  2  0  0  0
 22 23  1  0  0  0
 22 24  1  0  0  0
 24 25  2  0  0  0
 25 26  1  0  0  0
 33 28  1  0  0  0
  6  1  1  0  0  0
 25 19  1  0  0  0
 39 40  1  0  0  0
  9 10  1  0  0  0
 14 15  1  0  0  0
M  END
> <minimizedAffinity>
-8.41093

> <CNNscore>
0.2191269696

> <CNNaffinity>
6.8607435226

> <CNN_VS>
1.5033739805

> <CNNaffinity_variance>
0.2012019604

$$$$
[H]OC(=O)C([H])([H])c1c([H])c([H])c(Oc2c([H])c([H])c(C(=O)N([H])C([H])(C([H])([H])[H])C([H])([H])[H])c([H])c2N([H])S(=O)(=O)c2c([H])c([H])c(Cl)c([H])c2Cl)c(OC([H])([H])[H])c1[H]


 40 42  0  0  0  0  0  0  0  0999 V2000
    0.8974  -50.8116  -19.4150 C   0  0  0  0  0  0  0  0  0  0  0  0
    0.6487  -52.1567  -19.3802 C   0  0  0  0  0  0  0  0  0  0  0  0
    0.2890  -52.8578  -20.5146 C   0  0  0  0  0  0  0  0  0  0  0  0
    0.1746  -52.1994  -21.7123 C   0  0  0  0  0  0  0  0  0  0  0  0
    0.4271  -50.8438  -21.7352 C   0  0  0  0  0  0  0  0  0  0  0  0
    0.7864  -50.1119  -20.6328 C   0  0  0  0  0  0  0  0  0  0  0  0
   -0.2007  -52.9086  -22.9420 C   0  0  0  0  0  0  0  0  0  0  0  0
   -0.6547  -54.0873  -22.8109 O   0  0  0  0  0  0  0  0  0  0  0  0
   -0.0655  -52.3147  -24.2020 N   0  0  0  0  0  0  0  0  0  0  0  0
    0.2958  -51.3636  -24.3316 H   0  0  0  0  0  0  0  0  0  0  0  0
   -0.4527  -53.0650  -25.3867 C   0  0  0  0  0  0  0  0  0  0  0  0
   -1.3383  -52.1415  -26.2052 C   0  0  0  0  0  0  0  0  0  0  0  0
    0.7615  -53.5007  -26.1492 C   0  0  0  0  0  0  0  0  0  0  0  0
    1.0375  -48.7129  -20.6343 N   0  0  0  0  0  0  0  0  0  0  0  0
    0.3563  -48.0721  -20.1406 H   0  0  0  0  0  0  0  0  0  0  0  0
    2.4261  -48.1018  -21.4302 S   0  0  0  0  0  0  0  0  0  0  0  0
    2.0739  -47.0048  -22.4287 O   0  0  0  0  0  0  0  0  0  0  0  0
    3.3423  -47.4895  -20.3633 O   0  0  0  0  0  0  0  0  0  0  0  0
    3.2905  -49.3993  -22.2162 C   0  0  0  0  0  0  0  0  0  0  0  0
    3.0990  -49.6526  -23.5440 C   0  0  0  0  0  0  0  0  0  0  0  0
    3.8110  -50.7261  -24.0968 C   0  0  0  0  0  0  0  0  0  0  0  0
    4.6660  -51.5019  -23.3597 C   0  0  0  0  0  0  0  0  0  0  0  0
    5.5407  -52.8316  -24.0701 Cl  0  0  0  0  0  0  0  0  0  0  0  0
    4.8196  -51.2024  -22.0290 C   0  0  0  0  0  0  0  0  0  0  0  0
    4.1542  -50.1702  -21.4349 C   0  0  0  0  0  0  0  0  0  0  0  0
    4.3499  -49.7814  -19.7206 Cl  0  0  0  0  0  0  0  0  0  0  0  0
    1.2597  -50.1101  -18.2820 O   0  0  0  0  0  0  0  0  0  0  0  0
    0.5991  -50.9570  -16.1085 C   0  0  0  0  0  0  0  0  0  0  0  0
    0.9925  -51.4866  -14.8896 C   0  0  0  0  0  0  0  0  0  0  0  0
    2.3175  -51.7178  -14.5574 C   0  0  0  0  0  0  0  0  0  0  0  0
    3.2731  -51.3982  -15.4999 C   0  0  0  0  0  0  0  0  0  0  0  0
    2.9041  -50.8700  -16.7183 C   0  0  0  0  0  0  0  0  0  0  0  0
    1.5591  -50.6381  -17.0477 C   0  0  0  0  0  0  0  0  0  0  0  0
   -1.6399  -51.8584  -16.3723 C   0  0  0  0  0  0  0  0  0  0  0  0
   -0.7536  -50.7486  -16.3892 O   0  0  0  0  0  0  0  0  0  0  0  0
    2.7258  -52.2874  -13.2442 C   0  0  0  0  0  0  0  0  0  0  0  0
    4.1931  -52.5111  -13.2257 C   0  0  0  0  0  0  0  0  0  0  0  0
    5.0272  -51.7041  -12.7701 O   0  0  0  0  0  0  0  0  0  0  0  0
    4.6501  -53.7235  -13.7645 O   0  0  0  0  0  0  0  0  0  0  0  0
    4.3123  -54.5866  -13.3681 H   0  0  0  0  0  0  0  0  0  0  0  0
 34 35  1  0  0  0
 35 28  1  0  0  0
 28 29  2  0  0  0
 29 30  1  0  0  0
 30 36  1  0  0  0
 36 37  1  0  0  0
 37 38  2  0  0  0
 37 39  1  0  0  0
 30 31  2  0  0  0
 31 32  1  0  0  0
 32 33  2  0  0  0
 33 27  1  0  0  0
 27  1  1  0  0  0
  1  2  2  0  0  0
  2  3  1  0  0  0
  3  4  2  0  0  0
  4  7  1  0  0  0
  7  8  2  0  0  0
  7  9  1  0  0  0
  9 11  1  0  0  0
 11 12  1  0  0  0
 11 13  1  0  0  0
  4  5  1  0  0  0
  5  6  2  0  0  0
  6 14  1  0  0  0
 14 16  1  0  0  0
 16 17  2  0  0  0
 16 18  2  0  0  0
 16 19  1  0  0  0
 19 20  2  0  0  0
 20 21  1  0  0  0
 21 22  2  0  0  0
 22 23  1  0  0  0
 22 24  1  0  0  0
 24 25  2  0  0  0
 25 26  1  0  0  0
 33 28  1  0  0  0
  6  1  1  0  0  0
 25 19  1  0  0  0
 39 40  1  0  0  0
  9 10  1  0  0  0
 14 15  1  0  0  0
M  END
> <minimizedAffinity>
-7.34920

> <CNNscore>
0.1903339177

> <CNNaffinity>
6.6158561707

> <CNN_VS>
1.2592217922

> <CNNaffinity_variance>
0.3218743801

$$$$
[H]OC(=O)C([H])([H])c1c([H])c([H])c(Oc2c([H])c([H])c(C(=O)N([H])C([H])(C([H])([H])[H])C([H])([H])[H])c([H])c2N([H])S(=O)(=O)c2c([H])c([H])c(Cl)c([H])c2Cl)c(OC([H])([H])[H])c1[H]


 40 42  0  0  0  0  0  0  0  0999 V2000
    0.5266  -51.7148  -19.2779 C   0  0  0  0  0  0  0  0  0  0  0  0
   -0.0627  -52.8898  -19.6577 C   0  0  0  0  0  0  0  0  0  0  0  0
   -0.2969  -53.1882  -20.9858 C   0  0  0  0  0  0  0  0  0  0  0  0
    0.0661  -52.2911  -21.9578 C   0  0  0  0  0  0  0  0  0  0  0  0
    0.6587  -51.1100  -21.5631 C   0  0  0  0  0  0  0  0  0  0  0  0
    0.9084  -50.7762  -20.2569 C   0  0  0  0  0  0  0  0  0  0  0  0
   -0.1609  -52.5722  -23.3809 C   0  0  0  0  0  0  0  0  0  0  0  0
   -1.3279  -52.3541  -23.8317 O   0  0  0  0  0  0  0  0  0  0  0  0
    0.8608  -53.0578  -24.2050 N   0  0  0  0  0  0  0  0  0  0  0  0
    1.8109  -53.2384  -23.8636 H   0  0  0  0  0  0  0  0  0  0  0  0
    0.5785  -53.3192  -25.6080 C   0  0  0  0  0  0  0  0  0  0  0  0
    1.8400  -52.9546  -26.3714 C   0  0  0  0  0  0  0  0  0  0  0  0
    0.1972  -54.7549  -25.8056 C   0  0  0  0  0  0  0  0  0  0  0  0
    1.5056  -49.5590  -19.8304 N   0  0  0  0  0  0  0  0  0  0  0  0
    1.3597  -49.2419  -18.8321 H   0  0  0  0  0  0  0  0  0  0  0  0
    2.4396  -48.6406  -20.9345 S   0  0  0  0  0  0  0  0  0  0  0  0
    1.5704  -47.7380  -21.8031 O   0  0  0  0  0  0  0  0  0  0  0  0
    3.3779  -47.7439  -20.1171 O   0  0  0  0  0  0  0  0  0  0  0  0
    3.4154  -49.6977  -21.9240 C   0  0  0  0  0  0  0  0  0  0  0  0
    3.2825  -49.6901  -23.2827 C   0  0  0  0  0  0  0  0  0  0  0  0
    4.0836  -50.5846  -24.0060 C   0  0  0  0  0  0  0  0  0  0  0  0
    4.9674  -51.4385  -23.4010 C   0  0  0  0  0  0  0  0  0  0  0  0
    5.9533  -52.5416  -24.3223 Cl  0  0  0  0  0  0  0  0  0  0  0  0
    5.0592  -51.4037  -22.0319 C   0  0  0  0  0  0  0  0  0  0  0  0
    4.3061  -50.5551  -21.2743 C   0  0  0  0  0  0  0  0  0  0  0  0
    4.4220  -50.5076  -19.5101 Cl  0  0  0  0  0  0  0  0  0  0  0  0
    0.7636  -51.4165  -17.9506 O   0  0  0  0  0  0  0  0  0  0  0  0
   -1.1898  -51.3593  -16.5156 C   0  0  0  0  0  0  0  0  0  0  0  0
   -1.9907  -50.6222  -15.6576 C   0  0  0  0  0  0  0  0  0  0  0  0
   -1.7396  -49.2975  -15.3390 C   0  0  0  0  0  0  0  0  0  0  0  0
   -0.6348  -48.7048  -15.9148 C   0  0  0  0  0  0  0  0  0  0  0  0
    0.1751  -49.4190  -16.7713 C   0  0  0  0  0  0  0  0  0  0  0  0
   -0.0860  -50.7613  -17.0898 C   0  0  0  0  0  0  0  0  0  0  0  0
   -2.8337  -53.0499  -17.0940 C   0  0  0  0  0  0  0  0  0  0  0  0
   -1.4909  -52.6941  -16.7977 O   0  0  0  0  0  0  0  0  0  0  0  0
   -2.6085  -48.5178  -14.4156 C   0  0  0  0  0  0  0  0  0  0  0  0
   -3.4031  -49.4427  -13.5692 C   0  0  0  0  0  0  0  0  0  0  0  0
   -2.9188  -50.2317  -12.7340 O   0  0  0  0  0  0  0  0  0  0  0  0
   -4.7956  -49.4088  -13.7387 O   0  0  0  0  0  0  0  0  0  0  0  0
   -5.2798  -48.5372  -13.5896 H   0  0  0  0  0  0  0  0  0  0  0  0
 34 35  1  0  0  0
 35 28  1  0  0  0
 28 29  2  0  0  0
 29 30  1  0  0  0
 30 36  1  0  0  0
 36 37  1  0  0  0
 37 38  2  0  0  0
 37 39  1  0  0  0
 30 31  2  0  0  0
 31 32  1  0  0  0
 32 33  2  0  0  0
 33 27  1  0  0  0
 27  1  1  0  0  0
  1  2  2  0  0  0
  2  3  1  0  0  0
  3  4  2  0  0  0
  4  7  1  0  0  0
  7  8  2  0  0  0
  7  9  1  0  0  0
  9 11  1  0  0  0
 11 12  1  0  0  0
 11 13  1  0  0  0
  4  5  1  0  0  0
  5  6  2  0  0  0
  6 14  1  0  0  0
 14 16  1  0  0  0
 16 17  2  0  0  0
 16 18  2  0  0  0
 16 19  1  0  0  0
 19 20  2  0  0  0
 20 21  1  0  0  0
 21 22  2  0  0  0
 22 23  1  0  0  0
 22 24  1  0  0  0
 24 25  2  0  0  0
 25 26  1  0  0  0
 33 28  1  0  0  0
  6  1  1  0  0  0
 25 19  1  0  0  0
 39 40  1  0  0  0
  9 10  1  0  0  0
 14 15  1  0  0  0
M  END
> <minimizedAffinity>
-7.04197

> <CNNscore>
0.1325518042

> <CNNaffinity>
6.5832114220

> <CNN_VS>
0.8726165295

> <CNNaffinity_variance>
0.1186489910

$$$$
[H]OC(=O)C([H])([H])c1c([H])c([H])c(Oc2c([H])c([H])c(C(=O)N([H])C([H])(C([H])([H])[H])C([H])([H])[H])c([H])c2N([H])S(=O)(=O)c2c([H])c([H])c(Cl)c([H])c2Cl)c(OC([H])([H])[H])c1[H]


 40 42  0  0  0  0  0  0  0  0999 V2000
    0.0356  -52.5493  -19.5130 C   0  0  0  0  0  0  0  0  0  0  0  0
   -0.4648  -53.5259  -20.3305 C   0  0  0  0  0  0  0  0  0  0  0  0
   -0.3893  -53.4299  -21.7063 C   0  0  0  0  0  0  0  0  0  0  0  0
    0.1999  -52.3318  -22.2792 C   0  0  0  0  0  0  0  0  0  0  0  0
    0.7002  -51.3538  -21.4455 C   0  0  0  0  0  0  0  0  0  0  0  0
    0.6454  -51.4111  -20.0767 C   0  0  0  0  0  0  0  0  0  0  0  0
    0.3046  -52.1937  -23.7372 C   0  0  0  0  0  0  0  0  0  0  0  0
    0.9769  -51.2095  -24.1754 O   0  0  0  0  0  0  0  0  0  0  0  0
   -0.3073  -53.1041  -24.6064 N   0  0  0  0  0  0  0  0  0  0  0  0
   -0.8522  -53.9075  -24.2753 H   0  0  0  0  0  0  0  0  0  0  0  0
   -0.1706  -52.9174  -26.0427 C   0  0  0  0  0  0  0  0  0  0  0  0
    0.1321  -54.2880  -26.6234 C   0  0  0  0  0  0  0  0  0  0  0  0
   -1.4244  -52.3292  -26.6149 C   0  0  0  0  0  0  0  0  0  0  0  0
    1.1433  -50.4075  -19.2020 N   0  0  0  0  0  0  0  0  0  0  0  0
    0.5236  -50.0614  -18.4180 H   0  0  0  0  0  0  0  0  0  0  0  0
    2.7224  -49.7860  -19.4366 S   0  0  0  0  0  0  0  0  0  0  0  0
    3.7577  -50.8970  -19.5720 O   0  0  0  0  0  0  0  0  0  0  0  0
    2.7179  -48.9858  -20.7451 O   0  0  0  0  0  0  0  0  0  0  0  0
    3.1440  -48.7033  -18.1333 C   0  0  0  0  0  0  0  0  0  0  0  0
    3.2092  -47.3565  -18.3473 C   0  0  0  0  0  0  0  0  0  0  0  0
    3.5781  -46.5555  -17.2576 C   0  0  0  0  0  0  0  0  0  0  0  0
    3.8657  -47.0758  -16.0236 C   0  0  0  0  0  0  0  0  0  0  0  0
    4.3218  -46.0588  -14.6835 Cl  0  0  0  0  0  0  0  0  0  0  0  0
    3.7848  -48.4368  -15.8655 C   0  0  0  0  0  0  0  0  0  0  0  0
    3.4311  -49.2674  -16.8883 C   0  0  0  0  0  0  0  0  0  0  0  0
    3.3257  -51.0216  -16.6881 Cl  0  0  0  0  0  0  0  0  0  0  0  0
   -0.0369  -52.6455  -18.1374 O   0  0  0  0  0  0  0  0  0  0  0  0
   -1.1154  -51.2641  -16.4621 C   0  0  0  0  0  0  0  0  0  0  0  0
   -2.2484  -51.0137  -15.7040 C   0  0  0  0  0  0  0  0  0  0  0  0
   -3.3988  -51.7812  -15.7864 C   0  0  0  0  0  0  0  0  0  0  0  0
   -3.3935  -52.8395  -16.6715 C   0  0  0  0  0  0  0  0  0  0  0  0
   -2.2776  -53.1069  -17.4349 C   0  0  0  0  0  0  0  0  0  0  0  0
   -1.1150  -52.3248  -17.3456 C   0  0  0  0  0  0  0  0  0  0  0  0
    0.3014  -49.8558  -15.0821 C   0  0  0  0  0  0  0  0  0  0  0  0
    0.0156  -50.4533  -16.3387 O   0  0  0  0  0  0  0  0  0  0  0  0
   -4.6087  -51.5006  -14.9660 C   0  0  0  0  0  0  0  0  0  0  0  0
   -4.9611  -52.6970  -14.1613 C   0  0  0  0  0  0  0  0  0  0  0  0
   -6.0916  -53.2219  -14.1297 O   0  0  0  0  0  0  0  0  0  0  0  0
   -3.9329  -53.2595  -13.3896 O   0  0  0  0  0  0  0  0  0  0  0  0
   -3.0951  -53.5724  -13.8548 H   0  0  0  0  0  0  0  0  0  0  0  0
 34 35  1  0  0  0
 35 28  1  0  0  0
 28 29  2  0  0  0
 29 30  1  0  0  0
 30 36  1  0  0  0
 36 37  1  0  0  0
 37 38  2  0  0  0
 37 39  1  0  0  0
 30 31  2  0  0  0
 31 32  1  0  0  0
 32 33  2  0  0  0
 33 27  1  0  0  0
 27  1  1  0  0  0
  1  2  2  0  0  0
  2  3  1  0  0  0
  3  4  2  0  0  0
  4  7  1  0  0  0
  7  8  2  0  0  0
  7  9  1  0  0  0
  9 11  1  0  0  0
 11 12  1  0  0  0
 11 13  1  0  0  0
  4  5  1  0  0  0
  5  6  2  0  0  0
  6 14  1  0  0  0
 14 16  1  0  0  0
 16 17  2  0  0  0
 16 18  2  0  0  0
 16 19  1  0  0  0
 19 20  2  0  0  0
 20 21  1  0  0  0
 21 22  2  0  0  0
 22 23  1  0  0  0
 22 24  1  0  0  0
 24 25  2  0  0  0
 25 26  1  0  0  0
 33 28  1  0  0  0
  6  1  1  0  0  0
 25 19  1  0  0  0
 39 40  1  0  0  0
  9 10  1  0  0  0
 14 15  1  0  0  0
M  END
> <minimizedAffinity>
-7.36540

> <CNNscore>
0.1222362071

> <CNNaffinity>
6.5609436035

> <CNN_VS>
0.8019848466

> <CNNaffinity_variance>
0.1268179119

$$$$
[H]OC(=O)C([H])([H])c1c([H])c([H])c(Oc2c([H])c([H])c(C(=O)N([H])C([H])(C([H])([H])[H])C([H])([H])[H])c([H])c2N([H])S(=O)(=O)c2c([H])c([H])c(Cl)c([H])c2Cl)c(OC([H])([H])[H])c1[H]


 40 42  0  0  0  0  0  0  0  0999 V2000
   -0.0649  -52.8417  -19.7509 C   0  0  0  0  0  0  0  0  0  0  0  0
   -0.7360  -53.7593  -20.5126 C   0  0  0  0  0  0  0  0  0  0  0  0
   -0.7402  -53.6933  -21.8922 C   0  0  0  0  0  0  0  0  0  0  0  0
   -0.0579  -52.6864  -22.5262 C   0  0  0  0  0  0  0  0  0  0  0  0
    0.6144  -51.7672  -21.7483 C   0  0  0  0  0  0  0  0  0  0  0  0
    0.6433  -51.7975  -20.3778 C   0  0  0  0  0  0  0  0  0  0  0  0
   -0.0333  -52.5835  -23.9906 C   0  0  0  0  0  0  0  0  0  0  0  0
   -1.0022  -51.9746  -24.5412 O   0  0  0  0  0  0  0  0  0  0  0  0
    1.0094  -53.1304  -24.7473 N   0  0  0  0  0  0  0  0  0  0  0  0
    1.8030  -53.6234  -24.3243 H   0  0  0  0  0  0  0  0  0  0  0  0
    0.9812  -52.9988  -26.1959 C   0  0  0  0  0  0  0  0  0  0  0  0
    2.4206  -52.7878  -26.6324 C   0  0  0  0  0  0  0  0  0  0  0  0
    0.3781  -54.2205  -26.8198 C   0  0  0  0  0  0  0  0  0  0  0  0
    1.3191  -50.8520  -19.5594 N   0  0  0  0  0  0  0  0  0  0  0  0
    0.7657  -50.0562  -19.1365 H   0  0  0  0  0  0  0  0  0  0  0  0
    3.0008  -51.0214  -19.2802 S   0  0  0  0  0  0  0  0  0  0  0  0
    3.3151  -51.2276  -17.8026 O   0  0  0  0  0  0  0  0  0  0  0  0
    3.4756  -52.2666  -20.0397 O   0  0  0  0  0  0  0  0  0  0  0  0
    3.8588  -49.6362  -19.9075 C   0  0  0  0  0  0  0  0  0  0  0  0
    4.7010  -49.7695  -20.9737 C   0  0  0  0  0  0  0  0  0  0  0  0
    5.3719  -48.6163  -21.4037 C   0  0  0  0  0  0  0  0  0  0  0  0
    5.2078  -47.3985  -20.7983 C   0  0  0  0  0  0  0  0  0  0  0  0
    6.0532  -45.9783  -21.3517 Cl  0  0  0  0  0  0  0  0  0  0  0  0
    4.3492  -47.3227  -19.7302 C   0  0  0  0  0  0  0  0  0  0  0  0
    3.6682  -48.4100  -19.2665 C   0  0  0  0  0  0  0  0  0  0  0  0
    2.5610  -48.3158  -17.8905 Cl  0  0  0  0  0  0  0  0  0  0  0  0
   -0.0578  -52.9083  -18.3716 O   0  0  0  0  0  0  0  0  0  0  0  0
   -0.9195  -51.4200  -16.6627 C   0  0  0  0  0  0  0  0  0  0  0  0
   -1.9801  -51.0694  -15.8422 C   0  0  0  0  0  0  0  0  0  0  0  0
   -3.1894  -51.7454  -15.8384 C   0  0  0  0  0  0  0  0  0  0  0  0
   -3.3213  -52.8149  -16.7000 C   0  0  0  0  0  0  0  0  0  0  0  0
   -2.2792  -53.1811  -17.5243 C   0  0  0  0  0  0  0  0  0  0  0  0
   -1.0563  -52.4913  -17.5224 C   0  0  0  0  0  0  0  0  0  0  0  0
    0.7562  -50.2242  -15.3754 C   0  0  0  0  0  0  0  0  0  0  0  0
    0.2764  -50.6986  -16.6253 O   0  0  0  0  0  0  0  0  0  0  0  0
   -4.3203  -51.3577  -14.9517 C   0  0  0  0  0  0  0  0  0  0  0  0
   -4.7859  -52.5387  -14.1823 C   0  0  0  0  0  0  0  0  0  0  0  0
   -5.9555  -52.9705  -14.1859 O   0  0  0  0  0  0  0  0  0  0  0  0
   -3.8238  -53.1994  -13.4033 O   0  0  0  0  0  0  0  0  0  0  0  0
   -3.0039  -53.5692  -13.8586 H   0  0  0  0  0  0  0  0  0  0  0  0
 34 35  1  0  0  0
 35 28  1  0  0  0
 28 29  2  0  0  0
 29 30  1  0  0  0
 30 36  1  0  0  0
 36 37  1  0  0  0
 37 38  2  0  0  0
 37 39  1  0  0  0
 30 31  2  0  0  0
 31 32  1  0  0  0
 32 33  2  0  0  0
 33 27  1  0  0  0
 27  1  1  0  0  0
  1  2  2  0  0  0
  2  3  1  0  0  0
  3  4  2  0  0  0
  4  7  1  0  0  0
  7  8  2  0  0  0
  7  9  1  0  0  0
  9 11  1  0  0  0
 11 12  1  0  0  0
 11 13  1  0  0  0
  4  5  1  0  0  0
  5  6  2  0  0  0
  6 14  1  0  0  0
 14 16  1  0  0  0
 16 17  2  0  0  0
 16 18  2  0  0  0
 16 19  1  0  0  0
 19 20  2  0  0  0
 20 21  1  0  0  0
 21 22  2  0  0  0
 22 23  1  0  0  0
 22 24  1  0  0  0
 24 25  2  0  0  0
 25 26  1  0  0  0
 33 28  1  0  0  0
  6  1  1  0  0  0
 25 19  1  0  0  0
 39 40  1  0  0  0
  9 10  1  0  0  0
 14 15  1  0  0  0
M  END
> <minimizedAffinity>
-7.44824

> <CNNscore>
0.1190271899

> <CNNaffinity>
6.6345481873

> <CNN_VS>
0.7896916270

> <CNNaffinity_variance>
0.1925484836

$$$$
[H]OC(=O)C([H])([H])c1c([H])c([H])c(Oc2c([H])c([H])c(C(=O)N([H])C([H])(C([H])([H])[H])C([H])([H])[H])c([H])c2N([H])S(=O)(=O)c2c([H])c([H])c(Cl)c([H])c2Cl)c(OC([H])([H])[H])c1[H]


 40 42  0  0  0  0  0  0  0  0999 V2000
    1.2219  -50.7944  -19.1512 C   0  0  0  0  0  0  0  0  0  0  0  0
    0.3093  -51.7999  -18.9821 C   0  0  0  0  0  0  0  0  0  0  0  0
   -0.2413  -52.4688  -20.0579 C   0  0  0  0  0  0  0  0  0  0  0  0
    0.1285  -52.1249  -21.3331 C   0  0  0  0  0  0  0  0  0  0  0  0
    1.0486  -51.1098  -21.4913 C   0  0  0  0  0  0  0  0  0  0  0  0
    1.6181  -50.4218  -20.4509 C   0  0  0  0  0  0  0  0  0  0  0  0
   -0.4294  -52.8143  -22.5032 C   0  0  0  0  0  0  0  0  0  0  0  0
   -1.1666  -53.8238  -22.2792 O   0  0  0  0  0  0  0  0  0  0  0  0
   -0.1627  -52.3805  -23.8068 N   0  0  0  0  0  0  0  0  0  0  0  0
    0.4269  -51.5667  -24.0114 H   0  0  0  0  0  0  0  0  0  0  0  0
   -0.7421  -53.1029  -24.9289 C   0  0  0  0  0  0  0  0  0  0  0  0
   -1.2314  -52.0488  -25.9070 C   0  0  0  0  0  0  0  0  0  0  0  0
    0.2758  -54.0130  -25.5461 C   0  0  0  0  0  0  0  0  0  0  0  0
    2.5573  -49.3647  -20.5947 N   0  0  0  0  0  0  0  0  0  0  0  0
    2.2915  -48.3975  -20.2598 H   0  0  0  0  0  0  0  0  0  0  0  0
    4.0854  -49.6790  -21.3025 S   0  0  0  0  0  0  0  0  0  0  0  0
    4.8753  -48.3977  -21.5453 O   0  0  0  0  0  0  0  0  0  0  0  0
    4.8843  -50.5443  -20.3199 O   0  0  0  0  0  0  0  0  0  0  0  0
    3.8891  -50.5753  -22.7880 C   0  0  0  0  0  0  0  0  0  0  0  0
    4.2497  -51.8903  -22.8546 C   0  0  0  0  0  0  0  0  0  0  0  0
    4.0842  -52.5345  -24.0886 C   0  0  0  0  0  0  0  0  0  0  0  0
    3.5859  -51.8959  -25.1932 C   0  0  0  0  0  0  0  0  0  0  0  0
    3.3890  -52.7187  -26.7170 Cl  0  0  0  0  0  0  0  0  0  0  0  0
    3.2402  -50.5733  -25.0691 C   0  0  0  0  0  0  0  0  0  0  0  0
    3.3782  -49.8932  -23.8946 C   0  0  0  0  0  0  0  0  0  0  0  0
    2.9336  -48.1891  -23.7312 Cl  0  0  0  0  0  0  0  0  0  0  0  0
    1.7750  -50.1268  -18.0764 O   0  0  0  0  0  0  0  0  0  0  0  0
    1.8508  -49.4372  -15.7533 C   0  0  0  0  0  0  0  0  0  0  0  0
    1.1501  -49.1763  -14.5863 C   0  0  0  0  0  0  0  0  0  0  0  0
   -0.2254  -49.3060  -14.4846 C   0  0  0  0  0  0  0  0  0  0  0  0
   -0.9092  -49.7155  -15.6108 C   0  0  0  0  0  0  0  0  0  0  0  0
   -0.2323  -49.9809  -16.7817 C   0  0  0  0  0  0  0  0  0  0  0  0
    1.1621  -49.8475  -16.8771 C   0  0  0  0  0  0  0  0  0  0  0  0
    3.7871  -47.9785  -15.8881 C   0  0  0  0  0  0  0  0  0  0  0  0
    3.2390  -49.2857  -15.7975 O   0  0  0  0  0  0  0  0  0  0  0  0
   -0.9652  -49.0222  -13.2245 C   0  0  0  0  0  0  0  0  0  0  0  0
   -2.0729  -48.0714  -13.4931 C   0  0  0  0  0  0  0  0  0  0  0  0
   -1.9188  -46.8822  -13.8345 O   0  0  0  0  0  0  0  0  0  0  0  0
   -3.3767  -48.5687  -13.3458 O   0  0  0  0  0  0  0  0  0  0  0  0
   -3.6569  -49.3624  -13.9007 H   0  0  0  0  0  0  0  0  0  0  0  0
 34 35  1  0  0  0
 35 28  1  0  0  0
 28 29  2  0  0  0
 29 30  1  0  0  0
 30 36  1  0  0  0
 36 37  1  0  0  0
 37 38  2  0  0  0
 37 39  1  0  0  0
 30 31  2  0  0  0
 31 32  1  0  0  0
 32 33  2  0  0  0
 33 27  1  0  0  0
 27  1  1  0  0  0
  1  2  2  0  0  0
  2  3  1  0  0  0
  3  4  2  0  0  0
  4  7  1  0  0  0
  7  8  2  0  0  0
  7  9  1  0  0  0
  9 11  1  0  0  0
 11 12  1  0  0  0
 11 13  1  0  0  0
  4  5  1  0  0  0
  5  6  2  0  0  0
  6 14  1  0  0  0
 14 16  1  0  0  0
 16 17  2  0  0  0
 16 18  2  0  0  0
 16 19  1  0  0  0
 19 20  2  0  0  0
 20 21  1  0  0  0
 21 22  2  0  0  0
 22 23  1  0  0  0
 22 24  1  0  0  0
 24 25  2  0  0  0
 25 26  1  0  0  0
 33 28  1  0  0  0
  6  1  1  0  0  0
 25 19  1  0  0  0
 39 40  1  0  0  0
  9 10  1  0  0  0
 14 15  1  0  0  0
M  END
> <minimizedAffinity>
-6.72366

> <CNNscore>
0.1077464521

> <CNNaffinity>
6.3874368668

> <CNN_VS>
0.6882236600

> <CNNaffinity_variance>
0.3018314838

$$$$
[H]c1c([H])c([H])c(N([H])c2nc3c([H])nc(N([H])c4c([H])c([H])c(OC([H])([H])[H])c([H])c4[H])nc3n2C([H])(C([H])([H])[H])C([H])([H])[H])c(F)c1[H]


 31 34  0  0  0  0  0  0  0  0999 V2000
   -0.4881  -53.2936  -19.8898 C   0  0  0  0  0  0  0  0  0  0  0  0
   -1.2634  -54.1875  -20.5026 N   0  0  0  0  0  0  0  0  0  0  0  0
   -1.4056  -54.3344  -21.8186 C   0  0  0  0  0  0  0  0  0  0  0  0
   -0.6929  -53.4933  -22.6495 C   0  0  0  0  0  0  0  0  0  0  0  0
   -0.5874  -53.3518  -23.9750 N   0  0  0  0  0  0  0  0  0  0  0  0
    0.2672  -52.3534  -24.2373 C   0  0  0  0  0  0  0  0  0  0  0  0
    0.7268  -51.8348  -23.0644 N   0  0  0  0  0  0  0  0  0  0  0  0
    0.1262  -52.5478  -22.0829 C   0  0  0  0  0  0  0  0  0  0  0  0
    0.2075  -52.4718  -20.7507 N   0  0  0  0  0  0  0  0  0  0  0  0
    1.6682  -50.7417  -22.8745 C   0  0  0  0  0  0  0  0  0  0  0  0
    3.0631  -51.2471  -22.5611 C   0  0  0  0  0  0  0  0  0  0  0  0
    1.1848  -49.7382  -21.8718 C   0  0  0  0  0  0  0  0  0  0  0  0
   -0.3392  -53.1400  -18.5110 N   0  0  0  0  0  0  0  0  0  0  0  0
   -0.2446  -54.0280  -17.9277 H   0  0  0  0  0  0  0  0  0  0  0  0
   -0.3647  -49.5639  -16.2441 C   0  0  0  0  0  0  0  0  0  0  0  0
    0.5050  -49.7226  -17.2950 C   0  0  0  0  0  0  0  0  0  0  0  0
    0.5294  -50.8846  -18.0619 C   0  0  0  0  0  0  0  0  0  0  0  0
   -0.3050  -51.9257  -17.8126 C   0  0  0  0  0  0  0  0  0  0  0  0
   -1.1994  -51.7458  -16.7219 C   0  0  0  0  0  0  0  0  0  0  0  0
   -1.2106  -50.6111  -15.9874 C   0  0  0  0  0  0  0  0  0  0  0  0
   -1.6088  -47.8771  -15.0503 C   0  0  0  0  0  0  0  0  0  0  0  0
   -0.3776  -48.4009  -15.4892 O   0  0  0  0  0  0  0  0  0  0  0  0
    0.6517  -51.8879  -25.5141 N   0  0  0  0  0  0  0  0  0  0  0  0
    1.4103  -51.1247  -25.5001 H   0  0  0  0  0  0  0  0  0  0  0  0
    0.1893  -52.2762  -26.7773 C   0  0  0  0  0  0  0  0  0  0  0  0
    0.9656  -52.8004  -27.7819 C   0  0  0  0  0  0  0  0  0  0  0  0
    0.3854  -53.1535  -29.0104 C   0  0  0  0  0  0  0  0  0  0  0  0
   -0.9603  -52.9869  -29.2411 C   0  0  0  0  0  0  0  0  0  0  0  0
   -1.7557  -52.4626  -28.2456 C   0  0  0  0  0  0  0  0  0  0  0  0
   -1.1800  -52.1283  -27.0693 C   0  0  0  0  0  0  0  0  0  0  0  0
   -2.0045  -51.6103  -26.1055 F   0  0  0  0  0  0  0  0  0  0  0  0
 21 22  1  0  0  0
 22 15  1  0  0  0
 15 16  2  0  0  0
 16 17  1  0  0  0
 17 18  2  0  0  0
 18 13  1  0  0  0
 13  1  1  0  0  0
  1  2  2  0  0  0
  2  3  1  0  0  0
  3  4  2  0  0  0
  4  5  1  0  0  0
  5  6  2  0  0  0
  6 23  1  0  0  0
 23 25  1  0  0  0
 25 26  2  0  0  0
 26 27  1  0  0  0
 27 28  2  0  0  0
 28 29  1  0  0  0
 29 30  2  0  0  0
 30 31  1  0  0  0
  6  7  1  0  0  0
  7 10  1  0  0  0
 10 11  1  0  0  0
 10 12  1  0  0  0
  7  8  1  0  0  0
  8  9  2  0  0  0
 18 19  1  0  0  0
 19 20  2  0  0  0
 20 15  1  0  0  0
  9  1  1  0  0  0
  8  4  1  0  0  0
 30 25  1  0  0  0
 13 14  1  0  0  0
 23 24  1  0  0  0
M  END
> <minimizedAffinity>
-8.66756

> <CNNscore>
0.8463339806

> <CNNaffinity>
7.2767691612

> <CNN_VS>
6.1585769653

> <CNNaffinity_variance>
0.1326010078

$$$$
[H]c1c([H])c([H])c(N([H])c2nc3c([H])nc(N([H])c4c([H])c([H])c(OC([H])([H])[H])c([H])c4[H])nc3n2C([H])(C([H])([H])[H])C([H])([H])[H])c(F)c1[H]


 31 34  0  0  0  0  0  0  0  0999 V2000
   -0.5181  -53.2468  -19.7494 C   0  0  0  0  0  0  0  0  0  0  0  0
   -1.2668  -54.1584  -20.3693 N   0  0  0  0  0  0  0  0  0  0  0  0
   -1.4119  -54.2934  -21.6862 C   0  0  0  0  0  0  0  0  0  0  0  0
   -0.7328  -53.4183  -22.5102 C   0  0  0  0  0  0  0  0  0  0  0  0
   -0.6401  -53.2567  -23.8344 N   0  0  0  0  0  0  0  0  0  0  0  0
    0.1790  -52.2270  -24.0887 C   0  0  0  0  0  0  0  0  0  0  0  0
    0.6280  -51.7080  -22.9118 N   0  0  0  0  0  0  0  0  0  0  0  0
    0.0575  -52.4531  -21.9363 C   0  0  0  0  0  0  0  0  0  0  0  0
    0.1443  -52.3913  -20.6036 N   0  0  0  0  0  0  0  0  0  0  0  0
    1.5334  -50.5865  -22.7133 C   0  0  0  0  0  0  0  0  0  0  0  0
    2.9491  -51.0485  -22.4273 C   0  0  0  0  0  0  0  0  0  0  0  0
    1.0290  -49.6192  -21.6857 C   0  0  0  0  0  0  0  0  0  0  0  0
   -0.3662  -53.1056  -18.3696 N   0  0  0  0  0  0  0  0  0  0  0  0
    0.5723  -53.3899  -17.9497 H   0  0  0  0  0  0  0  0  0  0  0  0
   -3.1579  -51.4812  -15.6318 C   0  0  0  0  0  0  0  0  0  0  0  0
   -3.4968  -52.5444  -16.4321 C   0  0  0  0  0  0  0  0  0  0  0  0
   -2.5963  -53.1031  -17.3352 C   0  0  0  0  0  0  0  0  0  0  0  0
   -1.3330  -52.6270  -17.4753 C   0  0  0  0  0  0  0  0  0  0  0  0
   -0.9973  -51.5266  -16.6396 C   0  0  0  0  0  0  0  0  0  0  0  0
   -1.8834  -50.9960  -15.7676 C   0  0  0  0  0  0  0  0  0  0  0  0
   -4.6421  -49.6817  -15.0177 C   0  0  0  0  0  0  0  0  0  0  0  0
   -4.0653  -50.9352  -14.7369 O   0  0  0  0  0  0  0  0  0  0  0  0
    0.5399  -51.7327  -25.3616 N   0  0  0  0  0  0  0  0  0  0  0  0
    1.2155  -50.8954  -25.3391 H   0  0  0  0  0  0  0  0  0  0  0  0
    0.1463  -52.1751  -26.6304 C   0  0  0  0  0  0  0  0  0  0  0  0
    0.9836  -52.6975  -27.5856 C   0  0  0  0  0  0  0  0  0  0  0  0
    0.4695  -53.1081  -28.8257 C   0  0  0  0  0  0  0  0  0  0  0  0
   -0.8705  -53.0007  -29.1166 C   0  0  0  0  0  0  0  0  0  0  0  0
   -1.7265  -52.4790  -28.1711 C   0  0  0  0  0  0  0  0  0  0  0  0
   -1.2140  -52.0888  -26.9829 C   0  0  0  0  0  0  0  0  0  0  0  0
   -2.0974  -51.5756  -26.0701 F   0  0  0  0  0  0  0  0  0  0  0  0
 21 22  1  0  0  0
 22 15  1  0  0  0
 15 16  2  0  0  0
 16 17  1  0  0  0
 17 18  2  0  0  0
 18 13  1  0  0  0
 13  1  1  0  0  0
  1  2  2  0  0  0
  2  3  1  0  0  0
  3  4  2  0  0  0
  4  5  1  0  0  0
  5  6  2  0  0  0
  6 23  1  0  0  0
 23 25  1  0  0  0
 25 26  2  0  0  0
 26 27  1  0  0  0
 27 28  2  0  0  0
 28 29  1  0  0  0
 29 30  2  0  0  0
 30 31  1  0  0  0
  6  7  1  0  0  0
  7 10  1  0  0  0
 10 11  1  0  0  0
 10 12  1  0  0  0
  7  8  1  0  0  0
  8  9  2  0  0  0
 18 19  1  0  0  0
 19 20  2  0  0  0
 20 15  1  0  0  0
  9  1  1  0  0  0
  8  4  1  0  0  0
 30 25  1  0  0  0
 13 14  1  0  0  0
 23 24  1  0  0  0
M  END
> <minimizedAffinity>
-8.89206

> <CNNscore>
0.8190796375

> <CNNaffinity>
7.2374954224

> <CNN_VS>
5.9280853271

> <CNNaffinity_variance>
0.1026742011

$$$$
[H]c1c([H])c([H])c(N([H])c2nc3c([H])nc(N([H])c4c([H])c([H])c(OC([H])([H])[H])c([H])c4[H])nc3n2C([H])(C([H])([H])[H])C([H])([H])[H])c(F)c1[H]


 31 34  0  0  0  0  0  0  0  0999 V2000
   -0.8776  -54.1718  -22.4887 C   0  0  0  0  0  0  0  0  0  0  0  0
   -1.6719  -54.4216  -21.4482 N   0  0  0  0  0  0  0  0  0  0  0  0
   -1.5751  -53.8776  -20.2365 C   0  0  0  0  0  0  0  0  0  0  0  0
   -0.5643  -52.9649  -20.0102 C   0  0  0  0  0  0  0  0  0  0  0  0
   -0.1725  -52.2406  -18.9566 N   0  0  0  0  0  0  0  0  0  0  0  0
    0.8918  -51.5058  -19.3079 C   0  0  0  0  0  0  0  0  0  0  0  0
    1.1997  -51.7545  -20.6115 N   0  0  0  0  0  0  0  0  0  0  0  0
    0.2911  -52.6615  -21.0407 C   0  0  0  0  0  0  0  0  0  0  0  0
    0.1191  -53.2565  -22.2254 N   0  0  0  0  0  0  0  0  0  0  0  0
    2.2756  -51.1798  -21.4046 C   0  0  0  0  0  0  0  0  0  0  0  0
    3.6391  -51.5140  -20.8313 C   0  0  0  0  0  0  0  0  0  0  0  0
    2.0958  -49.7095  -21.6325 C   0  0  0  0  0  0  0  0  0  0  0  0
   -0.9793  -54.7418  -23.7582 N   0  0  0  0  0  0  0  0  0  0  0  0
   -1.3566  -55.7377  -23.8179 H   0  0  0  0  0  0  0  0  0  0  0  0
    0.1181  -53.0999  -27.5036 C   0  0  0  0  0  0  0  0  0  0  0  0
   -0.4893  -52.3233  -26.5476 C   0  0  0  0  0  0  0  0  0  0  0  0
   -0.8535  -52.8352  -25.3050 C   0  0  0  0  0  0  0  0  0  0  0  0
   -0.6291  -54.1312  -24.9698 C   0  0  0  0  0  0  0  0  0  0  0  0
    0.0007  -54.9219  -25.9699 C   0  0  0  0  0  0  0  0  0  0  0  0
    0.3484  -54.4093  -27.1714 C   0  0  0  0  0  0  0  0  0  0  0  0
   -0.4114  -52.7034  -29.8232 C   0  0  0  0  0  0  0  0  0  0  0  0
    0.4753  -52.5762  -28.7367 O   0  0  0  0  0  0  0  0  0  0  0  0
    1.6040  -50.6075  -18.4830 N   0  0  0  0  0  0  0  0  0  0  0  0
    1.9913  -49.7440  -18.9952 H   0  0  0  0  0  0  0  0  0  0  0  0
    1.8720  -50.6837  -17.1108 C   0  0  0  0  0  0  0  0  0  0  0  0
    0.9330  -50.6047  -16.1115 C   0  0  0  0  0  0  0  0  0  0  0  0
    1.3250  -50.6947  -14.7666 C   0  0  0  0  0  0  0  0  0  0  0  0
    2.6441  -50.8624  -14.4148 C   0  0  0  0  0  0  0  0  0  0  0  0
    3.6009  -50.9438  -15.4030 C   0  0  0  0  0  0  0  0  0  0  0  0
    3.2052  -50.8551  -16.6923 C   0  0  0  0  0  0  0  0  0  0  0  0
    4.1863  -50.9406  -17.6447 F   0  0  0  0  0  0  0  0  0  0  0  0
 21 22  1  0  0  0
 22 15  1  0  0  0
 15 16  2  0  0  0
 16 17  1  0  0  0
 17 18  2  0  0  0
 18 13  1  0  0  0
 13  1  1  0  0  0
  1  2  2  0  0  0
  2  3  1  0  0  0
  3  4  2  0  0  0
  4  5  1  0  0  0
  5  6  2  0  0  0
  6 23  1  0  0  0
 23 25  1  0  0  0
 25 26  2  0  0  0
 26 27  1  0  0  0
 27 28  2  0  0  0
 28 29  1  0  0  0
 29 30  2  0  0  0
 30 31  1  0  0  0
  6  7  1  0  0  0
  7 10  1  0  0  0
 10 11  1  0  0  0
 10 12  1  0  0  0
  7  8  1  0  0  0
  8  9  2  0  0  0
 18 19  1  0  0  0
 19 20  2  0  0  0
 20 15  1  0  0  0
  9  1  1  0  0  0
  8  4  1  0  0  0
 30 25  1  0  0  0
 13 14  1  0  0  0
 23 24  1  0  0  0
M  END
> <minimizedAffinity>
-7.87123

> <CNNscore>
0.8158360720

> <CNNaffinity>
7.2078833580

> <CNN_VS>
5.8804512024

> <CNNaffinity_variance>
0.1303712577

$$$$
[H]c1c([H])c([H])c(N([H])c2nc3c([H])nc(N([H])c4c([H])c([H])c(OC([H])([H])[H])c([H])c4[H])nc3n2C([H])(C([H])([H])[H])C([H])([H])[H])c(F)c1[H]


 31 34  0  0  0  0  0  0  0  0999 V2000
   -0.4932  -53.2319  -19.7498 C   0  0  0  0  0  0  0  0  0  0  0  0
   -1.2554  -54.1571  -20.3317 N   0  0  0  0  0  0  0  0  0  0  0  0
   -1.4137  -54.3353  -21.6419 C   0  0  0  0  0  0  0  0  0  0  0  0
   -0.7346  -53.4949  -22.5012 C   0  0  0  0  0  0  0  0  0  0  0  0
   -0.6527  -53.3791  -23.8309 N   0  0  0  0  0  0  0  0  0  0  0  0
    0.1730  -52.3659  -24.1272 C   0  0  0  0  0  0  0  0  0  0  0  0
    0.6374  -51.8116  -22.9726 N   0  0  0  0  0  0  0  0  0  0  0  0
    0.0693  -52.5180  -21.9673 C   0  0  0  0  0  0  0  0  0  0  0  0
    0.1689  -52.4119  -20.6384 N   0  0  0  0  0  0  0  0  0  0  0  0
    1.5543  -50.6921  -22.8203 C   0  0  0  0  0  0  0  0  0  0  0  0
    2.9838  -51.1574  -22.6211 C   0  0  0  0  0  0  0  0  0  0  0  0
    1.1124  -49.7313  -21.7585 C   0  0  0  0  0  0  0  0  0  0  0  0
   -0.3274  -53.0455  -18.3770 N   0  0  0  0  0  0  0  0  0  0  0  0
    0.6315  -53.2676  -17.9659 H   0  0  0  0  0  0  0  0  0  0  0  0
   -3.1533  -51.5049  -15.6258 C   0  0  0  0  0  0  0  0  0  0  0  0
   -3.4713  -52.5645  -16.4395 C   0  0  0  0  0  0  0  0  0  0  0  0
   -2.5591  -53.0959  -17.3473 C   0  0  0  0  0  0  0  0  0  0  0  0
   -1.3044  -52.5953  -17.4791 C   0  0  0  0  0  0  0  0  0  0  0  0
   -0.9904  -51.4989  -16.6296 C   0  0  0  0  0  0  0  0  0  0  0  0
   -1.8876  -50.9950  -15.7532 C   0  0  0  0  0  0  0  0  0  0  0  0
   -4.6932  -49.7541  -15.0079 C   0  0  0  0  0  0  0  0  0  0  0  0
   -4.0722  -50.9862  -14.7264 O   0  0  0  0  0  0  0  0  0  0  0  0
    0.5266  -51.9184  -25.4192 N   0  0  0  0  0  0  0  0  0  0  0  0
    1.3525  -51.2288  -25.4413 H   0  0  0  0  0  0  0  0  0  0  0  0
   -0.0403  -52.2430  -26.6576 C   0  0  0  0  0  0  0  0  0  0  0  0
   -1.3803  -52.1961  -26.9557 C   0  0  0  0  0  0  0  0  0  0  0  0
   -1.8302  -52.5467  -28.2384 C   0  0  0  0  0  0  0  0  0  0  0  0
   -0.9535  -52.9423  -29.2216 C   0  0  0  0  0  0  0  0  0  0  0  0
    0.3947  -52.9958  -28.9418 C   0  0  0  0  0  0  0  0  0  0  0  0
    0.8098  -52.6548  -27.7016 C   0  0  0  0  0  0  0  0  0  0  0  0
    2.1573  -52.7211  -27.4634 F   0  0  0  0  0  0  0  0  0  0  0  0
 21 22  1  0  0  0
 22 15  1  0  0  0
 15 16  2  0  0  0
 16 17  1  0  0  0
 17 18  2  0  0  0
 18 13  1  0  0  0
 13  1  1  0  0  0
  1  2  2  0  0  0
  2  3  1  0  0  0
  3  4  2  0  0  0
  4  5  1  0  0  0
  5  6  2  0  0  0
  6 23  1  0  0  0
 23 25  1  0  0  0
 25 26  2  0  0  0
 26 27  1  0  0  0
 27 28  2  0  0  0
 28 29  1  0  0  0
 29 30  2  0  0  0
 30 31  1  0  0  0
  6  7  1  0  0  0
  7 10  1  0  0  0
 10 11  1  0  0  0
 10 12  1  0  0  0
  7  8  1  0  0  0
  8  9  2  0  0  0
 18 19  1  0  0  0
 19 20  2  0  0  0
 20 15  1  0  0  0
  9  1  1  0  0  0
  8  4  1  0  0  0
 30 25  1  0  0  0
 13 14  1  0  0  0
 23 24  1  0  0  0
M  END
> <minimizedAffinity>
-8.81772

> <CNNscore>
0.7291523218

> <CNNaffinity>
7.1143188477

> <CNN_VS>
5.1874222755

> <CNNaffinity_variance>
0.1205253005

$$$$
[H]c1c([H])c([H])c(N([H])c2nc3c([H])nc(N([H])c4c([H])c([H])c(OC([H])([H])[H])c([H])c4[H])nc3n2C([H])(C([H])([H])[H])C([H])([H])[H])c(F)c1[H]


 31 34  0  0  0  0  0  0  0  0999 V2000
   -0.6093  -53.1689  -19.4281 C   0  0  0  0  0  0  0  0  0  0  0  0
   -1.5742  -53.8360  -20.0602 N   0  0  0  0  0  0  0  0  0  0  0  0
   -1.7189  -53.9477  -21.3793 C   0  0  0  0  0  0  0  0  0  0  0  0
   -0.7948  -53.3223  -22.1921 C   0  0  0  0  0  0  0  0  0  0  0  0
   -0.6258  -53.2191  -23.5146 N   0  0  0  0  0  0  0  0  0  0  0  0
    0.4628  -52.4755  -23.7554 C   0  0  0  0  0  0  0  0  0  0  0  0
    1.0133  -52.0871  -22.5712 N   0  0  0  0  0  0  0  0  0  0  0  0
    0.2268  -52.6168  -21.6052 C   0  0  0  0  0  0  0  0  0  0  0  0
    0.2942  -52.5580  -20.2713 N   0  0  0  0  0  0  0  0  0  0  0  0
    2.1996  -51.2723  -22.3578 C   0  0  0  0  0  0  0  0  0  0  0  0
    1.9452  -49.8117  -22.6764 C   0  0  0  0  0  0  0  0  0  0  0  0
    3.4009  -51.8127  -23.0725 C   0  0  0  0  0  0  0  0  0  0  0  0
   -0.4577  -53.0522  -18.0460 N   0  0  0  0  0  0  0  0  0  0  0  0
   -0.1224  -53.9154  -17.5165 H   0  0  0  0  0  0  0  0  0  0  0  0
   -1.3605  -49.7066  -15.6130 C   0  0  0  0  0  0  0  0  0  0  0  0
   -0.2783  -49.6882  -16.4582 C   0  0  0  0  0  0  0  0  0  0  0  0
    0.0370  -50.7710  -17.2748 C   0  0  0  0  0  0  0  0  0  0  0  0
   -0.7077  -51.9058  -17.2800 C   0  0  0  0  0  0  0  0  0  0  0  0
   -1.8247  -51.9091  -16.4000 C   0  0  0  0  0  0  0  0  0  0  0  0
   -2.1173  -50.8491  -15.6139 C   0  0  0  0  0  0  0  0  0  0  0  0
   -1.0300  -47.3856  -15.0456 C   0  0  0  0  0  0  0  0  0  0  0  0
   -1.6623  -48.6206  -14.8055 O   0  0  0  0  0  0  0  0  0  0  0  0
    0.9836  -52.1307  -25.0221 N   0  0  0  0  0  0  0  0  0  0  0  0
    1.9092  -51.5829  -24.9891 H   0  0  0  0  0  0  0  0  0  0  0  0
    0.4698  -52.3993  -26.2966 C   0  0  0  0  0  0  0  0  0  0  0  0
   -0.8304  -52.1948  -26.6892 C   0  0  0  0  0  0  0  0  0  0  0  0
   -1.2284  -52.5037  -27.9995 C   0  0  0  0  0  0  0  0  0  0  0  0
   -0.3393  -53.0136  -28.9167 C   0  0  0  0  0  0  0  0  0  0  0  0
    0.9697  -53.2258  -28.5417 C   0  0  0  0  0  0  0  0  0  0  0  0
    1.3349  -52.9227  -27.2762 C   0  0  0  0  0  0  0  0  0  0  0  0
    2.6445  -53.1480  -26.9427 F   0  0  0  0  0  0  0  0  0  0  0  0
 21 22  1  0  0  0
 22 15  1  0  0  0
 15 16  2  0  0  0
 16 17  1  0  0  0
 17 18  2  0  0  0
 18 13  1  0  0  0
 13  1  1  0  0  0
  1  2  2  0  0  0
  2  3  1  0  0  0
  3  4  2  0  0  0
  4  5  1  0  0  0
  5  6  2  0  0  0
  6 23  1  0  0  0
 23 25  1  0  0  0
 25 26  2  0  0  0
 26 27  1  0  0  0
 27 28  2  0  0  0
 28 29  1  0  0  0
 29 30  2  0  0  0
 30 31  1  0  0  0
  6  7  1  0  0  0
  7 10  1  0  0  0
 10 11  1  0  0  0
 10 12  1  0  0  0
  7  8  1  0  0  0
  8  9  2  0  0  0
 18 19  1  0  0  0
 19 20  2  0  0  0
 20 15  1  0  0  0
  9  1  1  0  0  0
  8  4  1  0  0  0
 30 25  1  0  0  0
 13 14  1  0  0  0
 23 24  1  0  0  0
M  END
> <minimizedAffinity>
-8.09673

> <CNNscore>
0.6459501982

> <CNNaffinity>
6.9871735573

> <CNN_VS>
4.5133662224

> <CNNaffinity_variance>
0.1505811512

$$$$
[H]c1c([H])c([H])c(N([H])c2nc3c([H])nc(N([H])c4c([H])c([H])c(OC([H])([H])[H])c([H])c4[H])nc3n2C([H])(C([H])([H])[H])C([H])([H])[H])c(F)c1[H]


 31 34  0  0  0  0  0  0  0  0999 V2000
   -1.0845  -53.1748  -18.8591 C   0  0  0  0  0  0  0  0  0  0  0  0
   -1.7008  -53.8127  -19.8536 N   0  0  0  0  0  0  0  0  0  0  0  0
   -1.4416  -53.6802  -21.1531 C   0  0  0  0  0  0  0  0  0  0  0  0
   -0.4439  -52.8050  -21.5332 C   0  0  0  0  0  0  0  0  0  0  0  0
    0.0756  -52.4262  -22.7058 N   0  0  0  0  0  0  0  0  0  0  0  0
    1.0450  -51.5288  -22.4801 C   0  0  0  0  0  0  0  0  0  0  0  0
    1.1601  -51.3183  -21.1390 N   0  0  0  0  0  0  0  0  0  0  0  0
    0.2322  -52.1143  -20.5578 C   0  0  0  0  0  0  0  0  0  0  0  0
   -0.0952  -52.3102  -19.2765 N   0  0  0  0  0  0  0  0  0  0  0  0
    2.0798  -50.4290  -20.4461 C   0  0  0  0  0  0  0  0  0  0  0  0
    3.1419  -51.1983  -19.6848 C   0  0  0  0  0  0  0  0  0  0  0  0
    1.3692  -49.4299  -19.5842 C   0  0  0  0  0  0  0  0  0  0  0  0
   -1.3561  -53.3140  -17.4977 N   0  0  0  0  0  0  0  0  0  0  0  0
   -0.7614  -54.0091  -16.9492 H   0  0  0  0  0  0  0  0  0  0  0  0
   -4.1906  -51.0738  -15.2896 C   0  0  0  0  0  0  0  0  0  0  0  0
   -4.5719  -52.1903  -15.9923 C   0  0  0  0  0  0  0  0  0  0  0  0
   -3.6596  -52.9497  -16.7202 C   0  0  0  0  0  0  0  0  0  0  0  0
   -2.3423  -52.6279  -16.7764 C   0  0  0  0  0  0  0  0  0  0  0  0
   -1.9633  -51.4697  -16.0435 C   0  0  0  0  0  0  0  0  0  0  0  0
   -2.8615  -50.7435  -15.3413 C   0  0  0  0  0  0  0  0  0  0  0  0
   -4.8413  -50.0140  -13.2228 C   0  0  0  0  0  0  0  0  0  0  0  0
   -5.1103  -50.3272  -14.5691 O   0  0  0  0  0  0  0  0  0  0  0  0
    1.8395  -50.8848  -23.4542 N   0  0  0  0  0  0  0  0  0  0  0  0
    1.2890  -50.2611  -24.1368 H   0  0  0  0  0  0  0  0  0  0  0  0
    3.2244  -50.9446  -23.6519 C   0  0  0  0  0  0  0  0  0  0  0  0
    4.1006  -49.9043  -23.4611 C   0  0  0  0  0  0  0  0  0  0  0  0
    5.4731  -50.0866  -23.6931 C   0  0  0  0  0  0  0  0  0  0  0  0
    5.9739  -51.2968  -24.1130 C   0  0  0  0  0  0  0  0  0  0  0  0
    5.1106  -52.3526  -24.3101 C   0  0  0  0  0  0  0  0  0  0  0  0
    3.7926  -52.1588  -24.0818 C   0  0  0  0  0  0  0  0  0  0  0  0
    2.9675  -53.2327  -24.2892 F   0  0  0  0  0  0  0  0  0  0  0  0
 21 22  1  0  0  0
 22 15  1  0  0  0
 15 16  2  0  0  0
 16 17  1  0  0  0
 17 18  2  0  0  0
 18 13  1  0  0  0
 13  1  1  0  0  0
  1  2  2  0  0  0
  2  3  1  0  0  0
  3  4  2  0  0  0
  4  5  1  0  0  0
  5  6  2  0  0  0
  6 23  1  0  0  0
 23 25  1  0  0  0
 25 26  2  0  0  0
 26 27  1  0  0  0
 27 28  2  0  0  0
 28 29  1  0  0  0
 29 30  2  0  0  0
 30 31  1  0  0  0
  6  7  1  0  0  0
  7 10  1  0  0  0
 10 11  1  0  0  0
 10 12  1  0  0  0
  7  8  1  0  0  0
  8  9  2  0  0  0
 18 19  1  0  0  0
 19 20  2  0  0  0
 20 15  1  0  0  0
  9  1  1  0  0  0
  8  4  1  0  0  0
 30 25  1  0  0  0
 13 14  1  0  0  0
 23 24  1  0  0  0
M  END
> <minimizedAffinity>
-7.48327

> <CNNscore>
0.6005491614

> <CNNaffinity>
6.7419357300

> <CNN_VS>
4.0488638878

> <CNNaffinity_variance>
0.1289169341

$$$$
[H]c1c([H])c([H])c(N([H])c2nc3c([H])nc(N([H])c4c([H])c([H])c(OC([H])([H])[H])c([H])c4[H])nc3n2C([H])(C([H])([H])[H])C([H])([H])[H])c(F)c1[H]


 31 34  0  0  0  0  0  0  0  0999 V2000
   -1.1564  -53.1183  -18.7788 C   0  0  0  0  0  0  0  0  0  0  0  0
   -1.7935  -53.8859  -19.6622 N   0  0  0  0  0  0  0  0  0  0  0  0
   -1.6381  -53.8582  -20.9846 C   0  0  0  0  0  0  0  0  0  0  0  0
   -0.7372  -52.9576  -21.5167 C   0  0  0  0  0  0  0  0  0  0  0  0
   -0.3319  -52.6561  -22.7549 N   0  0  0  0  0  0  0  0  0  0  0  0
    0.5824  -51.6787  -22.6852 C   0  0  0  0  0  0  0  0  0  0  0  0
    0.7770  -51.3368  -21.3808 N   0  0  0  0  0  0  0  0  0  0  0  0
   -0.0459  -52.1353  -20.6614 C   0  0  0  0  0  0  0  0  0  0  0  0
   -0.2658  -52.2322  -19.3462 N   0  0  0  0  0  0  0  0  0  0  0  0
    1.6759  -50.3273  -20.8425 C   0  0  0  0  0  0  0  0  0  0  0  0
    1.1892  -48.9224  -21.1409 C   0  0  0  0  0  0  0  0  0  0  0  0
    3.0972  -50.5423  -21.2665 C   0  0  0  0  0  0  0  0  0  0  0  0
   -1.3192  -53.1476  -17.3933 N   0  0  0  0  0  0  0  0  0  0  0  0
   -0.7374  -53.8558  -16.8478 H   0  0  0  0  0  0  0  0  0  0  0  0
   -3.7584  -50.5389  -15.1189 C   0  0  0  0  0  0  0  0  0  0  0  0
   -4.2955  -51.6410  -15.7375 C   0  0  0  0  0  0  0  0  0  0  0  0
   -3.5154  -52.5195  -16.4848 C   0  0  0  0  0  0  0  0  0  0  0  0
   -2.1803  -52.3348  -16.6440 C   0  0  0  0  0  0  0  0  0  0  0  0
   -1.6393  -51.1897  -15.9973 C   0  0  0  0  0  0  0  0  0  0  0  0
   -2.4105  -50.3467  -15.2749 C   0  0  0  0  0  0  0  0  0  0  0  0
   -5.1126  -50.1187  -13.1675 C   0  0  0  0  0  0  0  0  0  0  0  0
   -4.5477  -49.6727  -14.3778 O   0  0  0  0  0  0  0  0  0  0  0  0
    1.2558  -51.0769  -23.7710 N   0  0  0  0  0  0  0  0  0  0  0  0
    1.5319  -50.0494  -23.6096 H   0  0  0  0  0  0  0  0  0  0  0  0
    1.6090  -51.6241  -25.0105 C   0  0  0  0  0  0  0  0  0  0  0  0
    0.8097  -51.6453  -26.1273 C   0  0  0  0  0  0  0  0  0  0  0  0
    1.2764  -52.2247  -27.3177 C   0  0  0  0  0  0  0  0  0  0  0  0
    2.5316  -52.7812  -27.3994 C   0  0  0  0  0  0  0  0  0  0  0  0
    3.3483  -52.7696  -26.2895 C   0  0  0  0  0  0  0  0  0  0  0  0
    2.8823  -52.2076  -25.1521 C   0  0  0  0  0  0  0  0  0  0  0  0
    3.7244  -52.2161  -24.0714 F   0  0  0  0  0  0  0  0  0  0  0  0
 21 22  1  0  0  0
 22 15  1  0  0  0
 15 16  2  0  0  0
 16 17  1  0  0  0
 17 18  2  0  0  0
 18 13  1  0  0  0
 13  1  1  0  0  0
  1  2  2  0  0  0
  2  3  1  0  0  0
  3  4  2  0  0  0
  4  5  1  0  0  0
  5  6  2  0  0  0
  6 23  1  0  0  0
 23 25  1  0  0  0
 25 26  2  0  0  0
 26 27  1  0  0  0
 27 28  2  0  0  0
 28 29  1  0  0  0
 29 30  2  0  0  0
 30 31  1  0  0  0
  6  7  1  0  0  0
  7 10  1  0  0  0
 10 11  1  0  0  0
 10 12  1  0  0  0
  7  8  1  0  0  0
  8  9  2  0  0  0
 18 19  1  0  0  0
 19 20  2  0  0  0
 20 15  1  0  0  0
  9  1  1  0  0  0
  8  4  1  0  0  0
 30 25  1  0  0  0
 13 14  1  0  0  0
 23 24  1  0  0  0
M  END
> <minimizedAffinity>
-7.75864

> <CNNscore>
0.5501251221

> <CNNaffinity>
6.6885352135

> <CNN_VS>
3.6795313358

> <CNNaffinity_variance>
0.1541293412

$$$$
[H]c1c([H])c([H])c(N([H])c2nc3c([H])nc(N([H])c4c([H])c([H])c(OC([H])([H])[H])c([H])c4[H])nc3n2C([H])(C([H])([H])[H])C([H])([H])[H])c(F)c1[H]


 31 34  0  0  0  0  0  0  0  0999 V2000
   -0.1401  -53.2318  -20.7255 C   0  0  0  0  0  0  0  0  0  0  0  0
   -0.5942  -53.7538  -21.8644 N   0  0  0  0  0  0  0  0  0  0  0  0
   -0.1315  -53.4973  -23.0866 C   0  0  0  0  0  0  0  0  0  0  0  0
    0.9182  -52.6098  -23.2136 C   0  0  0  0  0  0  0  0  0  0  0  0
    1.6190  -52.1266  -24.2449 N   0  0  0  0  0  0  0  0  0  0  0  0
    2.5448  -51.2769  -23.7792 C   0  0  0  0  0  0  0  0  0  0  0  0
    2.4468  -51.2042  -22.4223 N   0  0  0  0  0  0  0  0  0  0  0  0
    1.4345  -52.0346  -22.0786 C   0  0  0  0  0  0  0  0  0  0  0  0
    0.9071  -52.3508  -20.8915 N   0  0  0  0  0  0  0  0  0  0  0  0
    3.2494  -50.4083  -21.5062 C   0  0  0  0  0  0  0  0  0  0  0  0
    4.0297  -51.2777  -20.5392 C   0  0  0  0  0  0  0  0  0  0  0  0
    2.4441  -49.3556  -20.8067 C   0  0  0  0  0  0  0  0  0  0  0  0
   -0.6249  -53.5007  -19.4451 N   0  0  0  0  0  0  0  0  0  0  0  0
   -0.9639  -54.4930  -19.2493 H   0  0  0  0  0  0  0  0  0  0  0  0
   -1.0283  -50.8874  -16.1381 C   0  0  0  0  0  0  0  0  0  0  0  0
   -0.0745  -50.6607  -17.0997 C   0  0  0  0  0  0  0  0  0  0  0  0
    0.0749  -51.4991  -18.2013 C   0  0  0  0  0  0  0  0  0  0  0  0
   -0.7138  -52.5882  -18.3854 C   0  0  0  0  0  0  0  0  0  0  0  0
   -1.6965  -52.8092  -17.3815 C   0  0  0  0  0  0  0  0  0  0  0  0
   -1.8287  -51.9851  -16.3183 C   0  0  0  0  0  0  0  0  0  0  0  0
   -0.1006  -49.9180  -14.1337 C   0  0  0  0  0  0  0  0  0  0  0  0
   -1.1654  -50.0436  -15.0465 O   0  0  0  0  0  0  0  0  0  0  0  0
    3.4869  -50.5556  -24.5453 N   0  0  0  0  0  0  0  0  0  0  0  0
    4.3652  -51.1163  -24.8143 H   0  0  0  0  0  0  0  0  0  0  0  0
    3.4371  -49.2312  -24.9969 C   0  0  0  0  0  0  0  0  0  0  0  0
    3.4665  -48.1161  -24.1955 C   0  0  0  0  0  0  0  0  0  0  0  0
    3.4101  -46.8351  -24.7671 C   0  0  0  0  0  0  0  0  0  0  0  0
    3.3249  -46.6616  -26.1289 C   0  0  0  0  0  0  0  0  0  0  0  0
    3.2942  -47.7682  -26.9495 C   0  0  0  0  0  0  0  0  0  0  0  0
    3.3493  -48.9935  -26.3817 C   0  0  0  0  0  0  0  0  0  0  0  0
    3.3163  -50.0677  -27.2314 F   0  0  0  0  0  0  0  0  0  0  0  0
 21 22  1  0  0  0
 22 15  1  0  0  0
 15 16  2  0  0  0
 16 17  1  0  0  0
 17 18  2  0  0  0
 18 13  1  0  0  0
 13  1  1  0  0  0
  1  2  2  0  0  0
  2  3  1  0  0  0
  3  4  2  0  0  0
  4  5  1  0  0  0
  5  6  2  0  0  0
  6 23  1  0  0  0
 23 25  1  0  0  0
 25 26  2  0  0  0
 26 27  1  0  0  0
 27 28  2  0  0  0
 28 29  1  0  0  0
 29 30  2  0  0  0
 30 31  1  0  0  0
  6  7  1  0  0  0
  7 10  1  0  0  0
 10 11  1  0  0  0
 10 12  1  0  0  0
  7  8  1  0  0  0
  8  9  2  0  0  0
 18 19  1  0  0  0
 19 20  2  0  0  0
 20 15  1  0  0  0
  9  1  1  0  0  0
  8  4  1  0  0  0
 30 25  1  0  0  0
 13 14  1  0  0  0
 23 24  1  0  0  0
M  END
> <minimizedAffinity>
-6.63503

> <CNNscore>
0.4719815254

> <CNNaffinity>
6.7843766212

> <CNN_VS>
3.2021005154

> <CNNaffinity_variance>
0.4561086595

$$$$
[H]c1c([H])c([H])c(N([H])c2nc3c([H])nc(N([H])c4c([H])c([H])c(OC([H])([H])[H])c([H])c4[H])nc3n2C([H])(C([H])([H])[H])C([H])([H])[H])c(F)c1[H]


 31 34  0  0  0  0  0  0  0  0999 V2000
    0.4328  -52.4091  -20.3846 C   0  0  0  0  0  0  0  0  0  0  0  0
   -0.5732  -53.2588  -20.1800 N   0  0  0  0  0  0  0  0  0  0  0  0
   -1.1494  -54.0313  -21.0991 C   0  0  0  0  0  0  0  0  0  0  0  0
   -0.6786  -53.9648  -22.3952 C   0  0  0  0  0  0  0  0  0  0  0  0
   -1.0003  -54.5712  -23.5428 N   0  0  0  0  0  0  0  0  0  0  0  0
   -0.1968  -54.1152  -24.5136 C   0  0  0  0  0  0  0  0  0  0  0  0
    0.6631  -53.1965  -23.9914 N   0  0  0  0  0  0  0  0  0  0  0  0
    0.3578  -53.1086  -22.6756 C   0  0  0  0  0  0  0  0  0  0  0  0
    0.8760  -52.3697  -21.6893 N   0  0  0  0  0  0  0  0  0  0  0  0
    1.7040  -52.4488  -24.6803 C   0  0  0  0  0  0  0  0  0  0  0  0
    3.0683  -52.6799  -24.0601 C   0  0  0  0  0  0  0  0  0  0  0  0
    1.3730  -50.9928  -24.8081 C   0  0  0  0  0  0  0  0  0  0  0  0
    1.0364  -51.5999  -19.4214 N   0  0  0  0  0  0  0  0  0  0  0  0
    0.9721  -51.9186  -18.4055 H   0  0  0  0  0  0  0  0  0  0  0  0
    2.9103  -47.8856  -20.2088 C   0  0  0  0  0  0  0  0  0  0  0  0
    3.5630  -48.8650  -19.5012 C   0  0  0  0  0  0  0  0  0  0  0  0
    2.9736  -50.0981  -19.2348 C   0  0  0  0  0  0  0  0  0  0  0  0
    1.7203  -50.4003  -19.6592 C   0  0  0  0  0  0  0  0  0  0  0  0
    1.0581  -49.3762  -20.3906 C   0  0  0  0  0  0  0  0  0  0  0  0
    1.6446  -48.1844  -20.6411 C   0  0  0  0  0  0  0  0  0  0  0  0
    3.9116  -45.8502  -19.3886 C   0  0  0  0  0  0  0  0  0  0  0  0
    3.5099  -46.6623  -20.4666 O   0  0  0  0  0  0  0  0  0  0  0  0
   -0.2125  -54.5038  -25.8713 N   0  0  0  0  0  0  0  0  0  0  0  0
    0.0671  -55.5284  -26.0446 H   0  0  0  0  0  0  0  0  0  0  0  0
   -0.5369  -53.7514  -27.0067 C   0  0  0  0  0  0  0  0  0  0  0  0
   -1.6523  -52.9621  -27.1457 C   0  0  0  0  0  0  0  0  0  0  0  0
   -1.8701  -52.2522  -28.3371 C   0  0  0  0  0  0  0  0  0  0  0  0
   -0.9841  -52.3256  -29.3866 C   0  0  0  0  0  0  0  0  0  0  0  0
    0.1409  -53.1123  -29.2663 C   0  0  0  0  0  0  0  0  0  0  0  0
    0.3341  -53.7885  -28.1121 C   0  0  0  0  0  0  0  0  0  0  0  0
    1.4640  -54.5592  -28.0319 F   0  0  0  0  0  0  0  0  0  0  0  0
 21 22  1  0  0  0
 22 15  1  0  0  0
 15 16  2  0  0  0
 16 17  1  0  0  0
 17 18  2  0  0  0
 18 13  1  0  0  0
 13  1  1  0  0  0
  1  2  2  0  0  0
  2  3  1  0  0  0
  3  4  2  0  0  0
  4  5  1  0  0  0
  5  6  2  0  0  0
  6 23  1  0  0  0
 23 25  1  0  0  0
 25 26  2  0  0  0
 26 27  1  0  0  0
 27 28  2  0  0  0
 28 29  1  0  0  0
 29 30  2  0  0  0
 30 31  1  0  0  0
  6  7  1  0  0  0
  7 10  1  0  0  0
 10 11  1  0  0  0
 10 12  1  0  0  0
  7  8  1  0  0  0
  8  9  2  0  0  0
 18 19  1  0  0  0
 19 20  2  0  0  0
 20 15  1  0  0  0
  9  1  1  0  0  0
  8  4  1  0  0  0
 30 25  1  0  0  0
 13 14  1  0  0  0
 23 24  1  0  0  0
M  END
> <minimizedAffinity>
-7.54186

> <CNNscore>
0.4507165551

> <CNNaffinity>
6.9676218033

> <CNN_VS>
3.1404225826

> <CNNaffinity_variance>
0.1615725458

$$$$
[H]c1nc(-c2c([H])c([H])c(OC([H])([H])C([H])([H])C([H])([H])N3C([H])([H])C([H])([H])C([H])(C([H])([H])c4c([H])nc([H])n4[H])C([H])([H])C3([H])[H])c([H])c2[H])nc([H])c1[H]


 29 32  0  0  0  0  0  0  0  0999 V2000
    4.6840  -50.1171  -20.2574 C   0  0  0  0  0  0  0  0  0  0  0  0
    4.7770  -49.4479  -21.6159 C   0  0  0  0  0  0  0  0  0  0  0  0
    5.0116  -50.4469  -22.5601 O   0  0  0  0  0  0  0  0  0  0  0  0
    2.1417  -51.6646  -25.4114 C   0  0  0  0  0  0  0  0  0  0  0  0
    2.3070  -50.3375  -25.0795 C   0  0  0  0  0  0  0  0  0  0  0  0
    3.2528  -49.9329  -24.1393 C   0  0  0  0  0  0  0  0  0  0  0  0
    4.0608  -50.8509  -23.5047 C   0  0  0  0  0  0  0  0  0  0  0  0
    3.8915  -52.1773  -23.8405 C   0  0  0  0  0  0  0  0  0  0  0  0
    2.9489  -52.5842  -24.7780 C   0  0  0  0  0  0  0  0  0  0  0  0
   -0.7614  -52.8481  -28.2157 C   0  0  0  0  0  0  0  0  0  0  0  0
   -1.1185  -52.4360  -26.9506 C   0  0  0  0  0  0  0  0  0  0  0  0
   -0.1582  -52.0660  -26.0853 N   0  0  0  0  0  0  0  0  0  0  0  0
    1.1487  -52.0785  -26.3969 C   0  0  0  0  0  0  0  0  0  0  0  0
    1.4906  -52.4800  -27.6280 N   0  0  0  0  0  0  0  0  0  0  0  0
    0.5692  -52.8658  -28.5475 C   0  0  0  0  0  0  0  0  0  0  0  0
    3.5380  -49.4894  -19.4968 C   0  0  0  0  0  0  0  0  0  0  0  0
    2.4775  -50.4395  -19.2162 N   0  0  0  0  0  0  0  0  0  0  0  0
    1.2210  -49.7782  -19.5137 C   0  0  0  0  0  0  0  0  0  0  0  0
    0.8784  -50.0160  -20.9899 C   0  0  0  0  0  0  0  0  0  0  0  0
    0.4205  -51.4493  -21.0820 C   0  0  0  0  0  0  0  0  0  0  0  0
    1.4093  -52.3177  -20.3811 C   0  0  0  0  0  0  0  0  0  0  0  0
    2.6962  -51.5932  -20.0629 C   0  0  0  0  0  0  0  0  0  0  0  0
    0.1646  -51.8738  -22.5088 C   0  0  0  0  0  0  0  0  0  0  0  0
   -0.5410  -53.1705  -22.4901 C   0  0  0  0  0  0  0  0  0  0  0  0
   -1.2847  -53.7217  -21.4810 C   0  0  0  0  0  0  0  0  0  0  0  0
   -1.7440  -54.9051  -21.8807 N   0  0  0  0  0  0  0  0  0  0  0  0
   -1.3065  -55.1180  -23.1261 C   0  0  0  0  0  0  0  0  0  0  0  0
   -0.5748  -54.0588  -23.4918 N   0  0  0  0  0  0  0  0  0  0  0  0
   -0.0989  -53.9477  -24.4310 H   0  0  0  0  0  0  0  0  0  0  0  0
 10 11  2  0  0  0
 11 12  1  0  0  0
 12 13  2  0  0  0
 13  4  1  0  0  0
  4  5  2  0  0  0
  5  6  1  0  0  0
  6  7  2  0  0  0
  7  3  1  0  0  0
  3  2  1  0  0  0
  2  1  1  0  0  0
  1 16  1  0  0  0
 16 17  1  0  0  0
 17 18  1  0  0  0
 18 19  1  0  0  0
 19 20  1  0  0  0
 20 23  1  0  0  0
 23 24  1  0  0  0
 24 25  2  0  0  0
 25 26  1  0  0  0
 26 27  2  0  0  0
 27 28  1  0  0  0
 20 21  1  0  0  0
 21 22  1  0  0  0
  7  8  1  0  0  0
  8  9  2  0  0  0
 13 14  1  0  0  0
 14 15  2  0  0  0
 15 10  1  0  0  0
  9  4  1  0  0  0
 22 17  1  0  0  0
 28 24  1  0  0  0
 28 29  1  0  0  0
M  END
> <minimizedAffinity>
-7.13266

> <CNNscore>
0.5919198990

> <CNNaffinity>
6.8860731125

> <CNN_VS>
4.0760035515

> <CNNaffinity_variance>
0.1988635808

$$$$
[H]c1nc(-c2c([H])c([H])c(OC([H])([H])C([H])([H])C([H])([H])N3C([H])([H])C([H])([H])C([H])(C([H])([H])c4c([H])nc([H])n4[H])C([H])([H])C3([H])[H])c([H])c2[H])nc([H])c1[H]


 29 32  0  0  0  0  0  0  0  0999 V2000
    5.2524  -51.6282  -23.7921 C   0  0  0  0  0  0  0  0  0  0  0  0
    5.3989  -51.0175  -22.4109 C   0  0  0  0  0  0  0  0  0  0  0  0
    4.2865  -50.2058  -22.1913 O   0  0  0  0  0  0  0  0  0  0  0  0
    1.2927  -51.0925  -19.3453 C   0  0  0  0  0  0  0  0  0  0  0  0
    2.5355  -51.6852  -19.2898 C   0  0  0  0  0  0  0  0  0  0  0  0
    3.5249  -51.3947  -20.2272 C   0  0  0  0  0  0  0  0  0  0  0  0
    3.2943  -50.4993  -21.2486 C   0  0  0  0  0  0  0  0  0  0  0  0
    2.0494  -49.9090  -21.2996 C   0  0  0  0  0  0  0  0  0  0  0  0
    1.0601  -50.1967  -20.3660 C   0  0  0  0  0  0  0  0  0  0  0  0
   -1.6635  -51.9410  -16.4759 C   0  0  0  0  0  0  0  0  0  0  0  0
   -0.9038  -50.7944  -16.3992 C   0  0  0  0  0  0  0  0  0  0  0  0
    0.0307  -50.5621  -17.3377 N   0  0  0  0  0  0  0  0  0  0  0  0
    0.2632  -51.4031  -18.3594 C   0  0  0  0  0  0  0  0  0  0  0  0
   -0.4780  -52.5163  -18.4295 N   0  0  0  0  0  0  0  0  0  0  0  0
   -1.4369  -52.8085  -17.5137 C   0  0  0  0  0  0  0  0  0  0  0  0
    4.3818  -50.7148  -24.6247 C   0  0  0  0  0  0  0  0  0  0  0  0
    3.5481  -51.4492  -25.5584 N   0  0  0  0  0  0  0  0  0  0  0  0
    3.2437  -52.7283  -24.9453 C   0  0  0  0  0  0  0  0  0  0  0  0
    1.9665  -52.5803  -24.1087 C   0  0  0  0  0  0  0  0  0  0  0  0
    0.8304  -52.5141  -25.0973 C   0  0  0  0  0  0  0  0  0  0  0  0
    1.1676  -51.5173  -26.1537 C   0  0  0  0  0  0  0  0  0  0  0  0
    2.3558  -50.6600  -25.7856 C   0  0  0  0  0  0  0  0  0  0  0  0
   -0.4937  -52.2401  -24.4242 C   0  0  0  0  0  0  0  0  0  0  0  0
   -0.8129  -53.3799  -23.5417 C   0  0  0  0  0  0  0  0  0  0  0  0
   -0.9151  -53.3980  -22.1763 C   0  0  0  0  0  0  0  0  0  0  0  0
   -1.2203  -54.6323  -21.7831 N   0  0  0  0  0  0  0  0  0  0  0  0
   -1.3145  -55.4008  -22.8731 C   0  0  0  0  0  0  0  0  0  0  0  0
   -1.0655  -54.6331  -23.9406 N   0  0  0  0  0  0  0  0  0  0  0  0
   -1.0696  -54.9722  -24.9436 H   0  0  0  0  0  0  0  0  0  0  0  0
 10 11  2  0  0  0
 11 12  1  0  0  0
 12 13  2  0  0  0
 13  4  1  0  0  0
  4  5  2  0  0  0
  5  6  1  0  0  0
  6  7  2  0  0  0
  7  3  1  0  0  0
  3  2  1  0  0  0
  2  1  1  0  0  0
  1 16  1  0  0  0
 16 17  1  0  0  0
 17 18  1  0  0  0
 18 19  1  0  0  0
 19 20  1  0  0  0
 20 23  1  0  0  0
 23 24  1  0  0  0
 24 25  2  0  0  0
 25 26  1  0  0  0
 26 27  2  0  0  0
 27 28  1  0  0  0
 20 21  1  0  0  0
 21 22  1  0  0  0
  7  8  1  0  0  0
  8  9  2  0  0  0
 13 14  1  0  0  0
 14 15  2  0  0  0
 15 10  1  0  0  0
  9  4  1  0  0  0
 22 17  1  0  0  0
 28 24  1  0  0  0
 28 29  1  0  0  0
M  END
> <minimizedAffinity>
-6.61009

> <CNNscore>
0.5852580070

> <CNNaffinity>
6.7610764503

> <CNN_VS>
3.9569740295

> <CNNaffinity_variance>
0.1975351572

$$$$
[H]c1nc(-c2c([H])c([H])c(OC([H])([H])C([H])([H])C([H])([H])N3C([H])([H])C([H])([H])C([H])(C([H])([H])c4c([H])nc([H])n4[H])C([H])([H])C3([H])[H])c([H])c2[H])nc([H])c1[H]


 29 32  0  0  0  0  0  0  0  0999 V2000
   -0.0178  -52.1873  -19.5966 C   0  0  0  0  0  0  0  0  0  0  0  0
    0.5218  -53.5845  -19.8388 C   0  0  0  0  0  0  0  0  0  0  0  0
   -0.3476  -54.2222  -20.7233 O   0  0  0  0  0  0  0  0  0  0  0  0
   -0.2257  -53.6620  -24.9090 C   0  0  0  0  0  0  0  0  0  0  0  0
   -0.9736  -54.6699  -24.3401 C   0  0  0  0  0  0  0  0  0  0  0  0
   -1.0157  -54.8571  -22.9598 C   0  0  0  0  0  0  0  0  0  0  0  0
   -0.3069  -54.0362  -22.1100 C   0  0  0  0  0  0  0  0  0  0  0  0
    0.4397  -53.0294  -22.6842 C   0  0  0  0  0  0  0  0  0  0  0  0
    0.4838  -52.8400  -24.0609 C   0  0  0  0  0  0  0  0  0  0  0  0
   -0.0659  -53.1429  -29.0800 C   0  0  0  0  0  0  0  0  0  0  0  0
    0.9792  -53.7204  -28.3930 C   0  0  0  0  0  0  0  0  0  0  0  0
    0.8866  -53.8673  -27.0596 N   0  0  0  0  0  0  0  0  0  0  0  0
   -0.1878  -53.4740  -26.3552 C   0  0  0  0  0  0  0  0  0  0  0  0
   -1.2011  -52.9132  -27.0278 N   0  0  0  0  0  0  0  0  0  0  0  0
   -1.1691  -52.7367  -28.3737 C   0  0  0  0  0  0  0  0  0  0  0  0
    0.9623  -51.4463  -18.7158 C   0  0  0  0  0  0  0  0  0  0  0  0
    1.3837  -50.1863  -19.2996 N   0  0  0  0  0  0  0  0  0  0  0  0
    2.8068  -50.2907  -19.5612 C   0  0  0  0  0  0  0  0  0  0  0  0
    3.0063  -50.8701  -20.9675 C   0  0  0  0  0  0  0  0  0  0  0  0
    2.6696  -49.7555  -21.9250 C   0  0  0  0  0  0  0  0  0  0  0  0
    1.3636  -49.1560  -21.5275 C   0  0  0  0  0  0  0  0  0  0  0  0
    0.6217  -49.9977  -20.5160 C   0  0  0  0  0  0  0  0  0  0  0  0
    2.6983  -50.2141  -23.3639 C   0  0  0  0  0  0  0  0  0  0  0  0
    4.0001  -50.8611  -23.6213 C   0  0  0  0  0  0  0  0  0  0  0  0
    4.2593  -52.1797  -23.8846 C   0  0  0  0  0  0  0  0  0  0  0  0
    5.5699  -52.3357  -24.0555 N   0  0  0  0  0  0  0  0  0  0  0  0
    6.1504  -51.1407  -23.9060 C   0  0  0  0  0  0  0  0  0  0  0  0
    5.1900  -50.2469  -23.6418 N   0  0  0  0  0  0  0  0  0  0  0  0
    5.3540  -49.2142  -23.4758 H   0  0  0  0  0  0  0  0  0  0  0  0
 10 11  2  0  0  0
 11 12  1  0  0  0
 12 13  2  0  0  0
 13  4  1  0  0  0
  4  5  2  0  0  0
  5  6  1  0  0  0
  6  7  2  0  0  0
  7  3  1  0  0  0
  3  2  1  0  0  0
  2  1  1  0  0  0
  1 16  1  0  0  0
 16 17  1  0  0  0
 17 18  1  0  0  0
 18 19  1  0  0  0
 19 20  1  0  0  0
 20 23  1  0  0  0
 23 24  1  0  0  0
 24 25  2  0  0  0
 25 26  1  0  0  0
 26 27  2  0  0  0
 27 28  1  0  0  0
 20 21  1  0  0  0
 21 22  1  0  0  0
  7  8  1  0  0  0
  8  9  2  0  0  0
 13 14  1  0  0  0
 14 15  2  0  0  0
 15 10  1  0  0  0
  9  4  1  0  0  0
 22 17  1  0  0  0
 28 24  1  0  0  0
 28 29  1  0  0  0
M  END
> <minimizedAffinity>
-7.44146

> <CNNscore>
0.2509557605

> <CNNaffinity>
6.3976736069

> <CNN_VS>
1.6055330038

> <CNNaffinity_variance>
0.5001600385

$$$$
[H]c1nc(-c2c([H])c([H])c(OC([H])([H])C([H])([H])C([H])([H])N3C([H])([H])C([H])([H])C([H])(C([H])([H])c4c([H])nc([H])n4[H])C([H])([H])C3([H])[H])c([H])c2[H])nc([H])c1[H]


 29 32  0  0  0  0  0  0  0  0999 V2000
    6.1676  -49.8093  -24.5912 C   0  0  0  0  0  0  0  0  0  0  0  0
    6.6028  -48.7261  -25.5604 C   0  0  0  0  0  0  0  0  0  0  0  0
    5.4803  -47.9539  -25.8576 O   0  0  0  0  0  0  0  0  0  0  0  0
    4.2512  -47.0688  -29.8015 C   0  0  0  0  0  0  0  0  0  0  0  0
    5.3747  -47.8265  -29.5516 C   0  0  0  0  0  0  0  0  0  0  0  0
    5.7826  -48.1199  -28.2518 C   0  0  0  0  0  0  0  0  0  0  0  0
    5.0727  -47.6604  -27.1641 C   0  0  0  0  0  0  0  0  0  0  0  0
    3.9493  -46.9029  -27.4195 C   0  0  0  0  0  0  0  0  0  0  0  0
    3.5397  -46.6083  -28.7151 C   0  0  0  0  0  0  0  0  0  0  0  0
    3.0076  -46.2405  -33.7335 C   0  0  0  0  0  0  0  0  0  0  0  0
    2.4655  -47.2867  -33.0198 C   0  0  0  0  0  0  0  0  0  0  0  0
    2.8919  -47.5163  -31.7654 N   0  0  0  0  0  0  0  0  0  0  0  0
    3.8322  -46.7667  -31.1659 C   0  0  0  0  0  0  0  0  0  0  0  0
    4.3560  -45.7509  -31.8640 N   0  0  0  0  0  0  0  0  0  0  0  0
    3.9684  -45.4669  -33.1338 C   0  0  0  0  0  0  0  0  0  0  0  0
    4.7583  -50.2255  -24.9465 C   0  0  0  0  0  0  0  0  0  0  0  0
    4.3352  -51.4104  -24.2234 N   0  0  0  0  0  0  0  0  0  0  0  0
    3.7209  -50.9612  -22.9882 C   0  0  0  0  0  0  0  0  0  0  0  0
    2.2257  -50.7285  -23.2399 C   0  0  0  0  0  0  0  0  0  0  0  0
    1.6038  -52.0988  -23.3301 C   0  0  0  0  0  0  0  0  0  0  0  0
    2.4114  -52.9345  -24.2642 C   0  0  0  0  0  0  0  0  0  0  0  0
    3.3976  -52.1199  -25.0680 C   0  0  0  0  0  0  0  0  0  0  0  0
    0.1416  -52.0361  -23.7036 C   0  0  0  0  0  0  0  0  0  0  0  0
   -0.4943  -53.3102  -23.3138 C   0  0  0  0  0  0  0  0  0  0  0  0
   -0.8746  -53.7261  -22.0657 C   0  0  0  0  0  0  0  0  0  0  0  0
   -1.4093  -54.9412  -22.1605 N   0  0  0  0  0  0  0  0  0  0  0  0
   -1.3766  -55.3069  -23.4461 C   0  0  0  0  0  0  0  0  0  0  0  0
   -0.8186  -54.3102  -24.1434 N   0  0  0  0  0  0  0  0  0  0  0  0
   -0.6612  -54.3187  -25.1903 H   0  0  0  0  0  0  0  0  0  0  0  0
 10 11  2  0  0  0
 11 12  1  0  0  0
 12 13  2  0  0  0
 13  4  1  0  0  0
  4  5  2  0  0  0
  5  6  1  0  0  0
  6  7  2  0  0  0
  7  3  1  0  0  0
  3  2  1  0  0  0
  2  1  1  0  0  0
  1 16  1  0  0  0
 16 17  1  0  0  0
 17 18  1  0  0  0
 18 19  1  0  0  0
 19 20  1  0  0  0
 20 23  1  0  0  0
 23 24  1  0  0  0
 24 25  2  0  0  0
 25 26  1  0  0  0
 26 27  2  0  0  0
 27 28  1  0  0  0
 20 21  1  0  0  0
 21 22  1  0  0  0
  7  8  1  0  0  0
  8  9  2  0  0  0
 13 14  1  0  0  0
 14 15  2  0  0  0
 15 10  1  0  0  0
  9  4  1  0  0  0
 22 17  1  0  0  0
 28 24  1  0  0  0
 28 29  1  0  0  0
M  END
> <minimizedAffinity>
-6.09328

> <CNNscore>
0.2201247960

> <CNNaffinity>
5.7100439072

> <CNN_VS>
1.2569222450

> <CNNaffinity_variance>
0.2085421830

$$$$
[H]c1nc(-c2c([H])c([H])c(OC([H])([H])C([H])([H])C([H])([H])N3C([H])([H])C([H])([H])C([H])(C([H])([H])c4c([H])nc([H])n4[H])C([H])([H])C3([H])[H])c([H])c2[H])nc([H])c1[H]


 29 32  0  0  0  0  0  0  0  0999 V2000
    1.4388  -52.7508  -28.4321 C   0  0  0  0  0  0  0  0  0  0  0  0
    2.8462  -52.6654  -27.8717 C   0  0  0  0  0  0  0  0  0  0  0  0
    2.9697  -51.4306  -27.2354 O   0  0  0  0  0  0  0  0  0  0  0  0
    3.3200  -51.0012  -23.0471 C   0  0  0  0  0  0  0  0  0  0  0  0
    2.8314  -49.9823  -23.8358 C   0  0  0  0  0  0  0  0  0  0  0  0
    2.7149  -50.1211  -25.2176 C   0  0  0  0  0  0  0  0  0  0  0  0
    3.0860  -51.2888  -25.8477 C   0  0  0  0  0  0  0  0  0  0  0  0
    3.5740  -52.3051  -25.0540 C   0  0  0  0  0  0  0  0  0  0  0  0
    3.6916  -52.1698  -23.6753 C   0  0  0  0  0  0  0  0  0  0  0  0
    3.6935  -50.5102  -18.8863 C   0  0  0  0  0  0  0  0  0  0  0  0
    4.3064  -49.6434  -19.7643 C   0  0  0  0  0  0  0  0  0  0  0  0
    4.1608  -49.8370  -21.0869 N   0  0  0  0  0  0  0  0  0  0  0  0
    3.4384  -50.8464  -21.6013 C   0  0  0  0  0  0  0  0  0  0  0  0
    2.8446  -51.6862  -20.7435 N   0  0  0  0  0  0  0  0  0  0  0  0
    2.9528  -51.5451  -19.3975 C   0  0  0  0  0  0  0  0  0  0  0  0
    0.8801  -54.1170  -28.1049 C   0  0  0  0  0  0  0  0  0  0  0  0
   -0.3284  -54.0405  -27.3049 N   0  0  0  0  0  0  0  0  0  0  0  0
   -0.1573  -54.9456  -26.1841 C   0  0  0  0  0  0  0  0  0  0  0  0
    0.5084  -54.1811  -25.0328 C   0  0  0  0  0  0  0  0  0  0  0  0
   -0.5610  -53.2885  -24.4566 C   0  0  0  0  0  0  0  0  0  0  0  0
   -1.2295  -52.5559  -25.5700 C   0  0  0  0  0  0  0  0  0  0  0  0
   -0.4746  -52.6662  -26.8739 C   0  0  0  0  0  0  0  0  0  0  0  0
   -0.0202  -52.3724  -23.3844 C   0  0  0  0  0  0  0  0  0  0  0  0
   -0.4533  -52.8864  -22.0698 C   0  0  0  0  0  0  0  0  0  0  0  0
   -1.1819  -54.0123  -21.7929 C   0  0  0  0  0  0  0  0  0  0  0  0
   -1.3504  -54.1037  -20.4759 N   0  0  0  0  0  0  0  0  0  0  0  0
   -0.7425  -53.0567  -19.9088 C   0  0  0  0  0  0  0  0  0  0  0  0
   -0.1981  -52.3192  -20.8838 N   0  0  0  0  0  0  0  0  0  0  0  0
    0.3489  -51.4255  -20.7325 H   0  0  0  0  0  0  0  0  0  0  0  0
 10 11  2  0  0  0
 11 12  1  0  0  0
 12 13  2  0  0  0
 13  4  1  0  0  0
  4  5  2  0  0  0
  5  6  1  0  0  0
  6  7  2  0  0  0
  7  3  1  0  0  0
  3  2  1  0  0  0
  2  1  1  0  0  0
  1 16  1  0  0  0
 16 17  1  0  0  0
 17 18  1  0  0  0
 18 19  1  0  0  0
 19 20  1  0  0  0
 20 23  1  0  0  0
 23 24  1  0  0  0
 24 25  2  0  0  0
 25 26  1  0  0  0
 26 27  2  0  0  0
 27 28  1  0  0  0
 20 21  1  0  0  0
 21 22  1  0  0  0
  7  8  1  0  0  0
  8  9  2  0  0  0
 13 14  1  0  0  0
 14 15  2  0  0  0
 15 10  1  0  0  0
  9  4  1  0  0  0
 22 17  1  0  0  0
 28 24  1  0  0  0
 28 29  1  0  0  0
M  END
> <minimizedAffinity>
-6.93073

> <CNNscore>
0.2144094259

> <CNNaffinity>
6.6930098534

> <CNN_VS>
1.4350444078

> <CNNaffinity_variance>
0.1424123496

$$$$
[H]c1nc(-c2c([H])c([H])c(OC([H])([H])C([H])([H])C([H])([H])N3C([H])([H])C([H])([H])C([H])(C([H])([H])c4c([H])nc([H])n4[H])C([H])([H])C3([H])[H])c([H])c2[H])nc([H])c1[H]


 29 32  0  0  0  0  0  0  0  0999 V2000
    6.1724  -49.6822  -23.3877 C   0  0  0  0  0  0  0  0  0  0  0  0
    5.8006  -48.4871  -22.5300 C   0  0  0  0  0  0  0  0  0  0  0  0
    5.3611  -48.9748  -21.2996 O   0  0  0  0  0  0  0  0  0  0  0  0
    1.8888  -51.3383  -20.8464 C   0  0  0  0  0  0  0  0  0  0  0  0
    1.8242  -50.0529  -21.3387 C   0  0  0  0  0  0  0  0  0  0  0  0
    2.9679  -49.2710  -21.4892 C   0  0  0  0  0  0  0  0  0  0  0  0
    4.2110  -49.7582  -21.1492 C   0  0  0  0  0  0  0  0  0  0  0  0
    4.2701  -51.0448  -20.6573 C   0  0  0  0  0  0  0  0  0  0  0  0
    3.1310  -51.8276  -20.5059 C   0  0  0  0  0  0  0  0  0  0  0  0
   -1.5799  -53.6855  -20.4569 C   0  0  0  0  0  0  0  0  0  0  0  0
   -0.9936  -53.4783  -21.6862 C   0  0  0  0  0  0  0  0  0  0  0  0
    0.1146  -52.7211  -21.7656 N   0  0  0  0  0  0  0  0  0  0  0  0
    0.6859  -52.1493  -20.6923 C   0  0  0  0  0  0  0  0  0  0  0  0
    0.1121  -52.3538  -19.4996 N   0  0  0  0  0  0  0  0  0  0  0  0
   -1.0073  -53.1078  -19.3526 C   0  0  0  0  0  0  0  0  0  0  0  0
    5.3363  -49.6410  -24.6466 C   0  0  0  0  0  0  0  0  0  0  0  0
    3.9711  -50.0756  -24.4154 N   0  0  0  0  0  0  0  0  0  0  0  0
    3.1521  -49.4858  -25.4576 C   0  0  0  0  0  0  0  0  0  0  0  0
    3.1241  -50.4395  -26.6587 C   0  0  0  0  0  0  0  0  0  0  0  0
    2.2197  -51.5781  -26.2612 C   0  0  0  0  0  0  0  0  0  0  0  0
    2.6234  -52.0664  -24.9115 C   0  0  0  0  0  0  0  0  0  0  0  0
    3.9628  -51.5221  -24.4734 C   0  0  0  0  0  0  0  0  0  0  0  0
    2.1903  -52.6713  -27.3031 C   0  0  0  0  0  0  0  0  0  0  0  0
    0.8423  -52.7063  -27.9044 C   0  0  0  0  0  0  0  0  0  0  0  0
   -0.3659  -52.4777  -27.3019 C   0  0  0  0  0  0  0  0  0  0  0  0
   -1.3316  -52.6111  -28.2078 N   0  0  0  0  0  0  0  0  0  0  0  0
   -0.7608  -52.9205  -29.3766 C   0  0  0  0  0  0  0  0  0  0  0  0
    0.5627  -52.9771  -29.1858 N   0  0  0  0  0  0  0  0  0  0  0  0
    1.2730  -53.2021  -29.9380 H   0  0  0  0  0  0  0  0  0  0  0  0
 10 11  2  0  0  0
 11 12  1  0  0  0
 12 13  2  0  0  0
 13  4  1  0  0  0
  4  5  2  0  0  0
  5  6  1  0  0  0
  6  7  2  0  0  0
  7  3  1  0  0  0
  3  2  1  0  0  0
  2  1  1  0  0  0
  1 16  1  0  0  0
 16 17  1  0  0  0
 17 18  1  0  0  0
 18 19  1  0  0  0
 19 20  1  0  0  0
 20 23  1  0  0  0
 23 24  1  0  0  0
 24 25  2  0  0  0
 25 26  1  0  0  0
 26 27  2  0  0  0
 27 28  1  0  0  0
 20 21  1  0  0  0
 21 22  1  0  0  0
  7  8  1  0  0  0
  8  9  2  0  0  0
 13 14  1  0  0  0
 14 15  2  0  0  0
 15 10  1  0  0  0
  9  4  1  0  0  0
 22 17  1  0  0  0
 28 24  1  0  0  0
 28 29  1  0  0  0
M  END
> <minimizedAffinity>
-6.29333

> <CNNscore>
0.2012759745

> <CNNaffinity>
6.2950839996

> <CNN_VS>
1.2670491934

> <CNNaffinity_variance>
0.2704497576

$$$$
[H]c1nc(-c2c([H])c([H])c(OC([H])([H])C([H])([H])C([H])([H])N3C([H])([H])C([H])([H])C([H])(C([H])([H])c4c([H])nc([H])n4[H])C([H])([H])C3([H])[H])c([H])c2[H])nc([H])c1[H]


 29 32  0  0  0  0  0  0  0  0999 V2000
    3.1250  -48.4920  -23.1867 C   0  0  0  0  0  0  0  0  0  0  0  0
    3.8277  -47.2266  -23.6418 C   0  0  0  0  0  0  0  0  0  0  0  0
    2.9782  -46.5731  -24.5339 O   0  0  0  0  0  0  0  0  0  0  0  0
    3.4566  -46.7217  -28.7289 C   0  0  0  0  0  0  0  0  0  0  0  0
    2.4479  -45.9858  -28.1461 C   0  0  0  0  0  0  0  0  0  0  0  0
    2.2877  -45.9349  -26.7627 C   0  0  0  0  0  0  0  0  0  0  0  0
    3.1371  -46.6227  -25.9237 C   0  0  0  0  0  0  0  0  0  0  0  0
    4.1446  -47.3574  -26.5119 C   0  0  0  0  0  0  0  0  0  0  0  0
    4.3072  -47.4102  -27.8917 C   0  0  0  0  0  0  0  0  0  0  0  0
    3.9385  -46.9088  -32.9033 C   0  0  0  0  0  0  0  0  0  0  0  0
    4.3091  -47.9610  -32.0950 C   0  0  0  0  0  0  0  0  0  0  0  0
    4.1376  -47.8593  -30.7653 N   0  0  0  0  0  0  0  0  0  0  0  0
    3.6163  -46.7689  -30.1782 C   0  0  0  0  0  0  0  0  0  0  0  0
    3.2577  -45.7488  -30.9684 N   0  0  0  0  0  0  0  0  0  0  0  0
    3.4049  -45.7894  -32.3175 C   0  0  0  0  0  0  0  0  0  0  0  0
    3.9714  -49.6770  -23.5931 C   0  0  0  0  0  0  0  0  0  0  0  0
    3.2286  -50.9231  -23.5549 N   0  0  0  0  0  0  0  0  0  0  0  0
    1.8945  -50.6412  -24.0505 C   0  0  0  0  0  0  0  0  0  0  0  0
    1.8877  -50.8242  -25.5735 C   0  0  0  0  0  0  0  0  0  0  0  0
    1.9200  -52.3125  -25.8109 C   0  0  0  0  0  0  0  0  0  0  0  0
    3.0023  -52.9106  -24.9778 C   0  0  0  0  0  0  0  0  0  0  0  0
    3.9301  -51.8698  -24.3961 C   0  0  0  0  0  0  0  0  0  0  0  0
    2.0444  -52.6516  -27.2775 C   0  0  0  0  0  0  0  0  0  0  0  0
    0.6868  -52.7793  -27.8435 C   0  0  0  0  0  0  0  0  0  0  0  0
   -0.5074  -52.8765  -27.1803 C   0  0  0  0  0  0  0  0  0  0  0  0
   -1.4895  -52.9752  -28.0730 N   0  0  0  0  0  0  0  0  0  0  0  0
   -0.9430  -52.9425  -29.2927 C   0  0  0  0  0  0  0  0  0  0  0  0
    0.3820  -52.8232  -29.1468 N   0  0  0  0  0  0  0  0  0  0  0  0
    1.0761  -52.7719  -29.9446 H   0  0  0  0  0  0  0  0  0  0  0  0
 10 11  2  0  0  0
 11 12  1  0  0  0
 12 13  2  0  0  0
 13  4  1  0  0  0
  4  5  2  0  0  0
  5  6  1  0  0  0
  6  7  2  0  0  0
  7  3  1  0  0  0
  3  2  1  0  0  0
  2  1  1  0  0  0
  1 16  1  0  0  0
 16 17  1  0  0  0
 17 18  1  0  0  0
 18 19  1  0  0  0
 19 20  1  0  0  0
 20 23  1  0  0  0
 23 24  1  0  0  0
 24 25  2  0  0  0
 25 26  1  0  0  0
 26 27  2  0  0  0
 27 28  1  0  0  0
 20 21  1  0  0  0
 21 22  1  0  0  0
  7  8  1  0  0  0
  8  9  2  0  0  0
 13 14  1  0  0  0
 14 15  2  0  0  0
 15 10  1  0  0  0
  9  4  1  0  0  0
 22 17  1  0  0  0
 28 24  1  0  0  0
 28 29  1  0  0  0
M  END
> <minimizedAffinity>
-6.37456

> <CNNscore>
0.1872996241

> <CNNaffinity>
5.6460285187

> <CNN_VS>
1.0574990511

> <CNNaffinity_variance>
1.0748068094

$$$$
[H]c1nc(-c2c([H])c([H])c(OC([H])([H])C([H])([H])C([H])([H])N3C([H])([H])C([H])([H])C([H])(C([H])([H])c4c([H])nc([H])n4[H])C([H])([H])C3([H])[H])c([H])c2[H])nc([H])c1[H]


 29 32  0  0  0  0  0  0  0  0999 V2000
    0.7944  -53.5677  -26.8711 C   0  0  0  0  0  0  0  0  0  0  0  0
   -0.6097  -53.4745  -26.3038 C   0  0  0  0  0  0  0  0  0  0  0  0
   -0.6686  -54.3128  -25.1909 O   0  0  0  0  0  0  0  0  0  0  0  0
   -0.4346  -52.9110  -21.2123 C   0  0  0  0  0  0  0  0  0  0  0  0
   -0.7668  -54.2180  -21.4956 C   0  0  0  0  0  0  0  0  0  0  0  0
   -0.8448  -54.6832  -22.8069 C   0  0  0  0  0  0  0  0  0  0  0  0
   -0.5910  -53.8479  -23.8729 C   0  0  0  0  0  0  0  0  0  0  0  0
   -0.2590  -52.5413  -23.5840 C   0  0  0  0  0  0  0  0  0  0  0  0
   -0.1803  -52.0741  -22.2768 C   0  0  0  0  0  0  0  0  0  0  0  0
   -0.1742  -51.4918  -17.2613 C   0  0  0  0  0  0  0  0  0  0  0  0
    0.4713  -50.8480  -18.2940 C   0  0  0  0  0  0  0  0  0  0  0  0
    0.3614  -51.3356  -19.5423 N   0  0  0  0  0  0  0  0  0  0  0  0
   -0.3556  -52.4333  -19.8361 C   0  0  0  0  0  0  0  0  0  0  0  0
   -0.9812  -53.0555  -18.8286 N   0  0  0  0  0  0  0  0  0  0  0  0
   -0.9098  -52.6136  -17.5468 C   0  0  0  0  0  0  0  0  0  0  0  0
    1.3129  -52.1641  -27.0871 C   0  0  0  0  0  0  0  0  0  0  0  0
    2.6994  -52.0210  -26.6831 N   0  0  0  0  0  0  0  0  0  0  0  0
    2.8881  -50.6392  -26.2834 C   0  0  0  0  0  0  0  0  0  0  0  0
    2.5656  -50.5120  -24.7891 C   0  0  0  0  0  0  0  0  0  0  0  0
    3.7311  -51.1314  -24.0607 C   0  0  0  0  0  0  0  0  0  0  0  0
    4.0251  -52.4625  -24.6648 C   0  0  0  0  0  0  0  0  0  0  0  0
    2.9263  -52.9381  -25.5861 C   0  0  0  0  0  0  0  0  0  0  0  0
    3.5008  -51.1948  -22.5693 C   0  0  0  0  0  0  0  0  0  0  0  0
    4.6946  -50.6538  -21.8897 C   0  0  0  0  0  0  0  0  0  0  0  0
    4.7803  -49.5820  -21.0417 C   0  0  0  0  0  0  0  0  0  0  0  0
    6.0454  -49.4388  -20.6542 N   0  0  0  0  0  0  0  0  0  0  0  0
    6.7673  -50.3999  -21.2397 C   0  0  0  0  0  0  0  0  0  0  0  0
    5.9398  -51.1364  -21.9906 N   0  0  0  0  0  0  0  0  0  0  0  0
    6.2326  -51.9712  -22.5722 H   0  0  0  0  0  0  0  0  0  0  0  0
 10 11  2  0  0  0
 11 12  1  0  0  0
 12 13  2  0  0  0
 13  4  1  0  0  0
  4  5  2  0  0  0
  5  6  1  0  0  0
  6  7  2  0  0  0
  7  3  1  0  0  0
  3  2  1  0  0  0
  2  1  1  0  0  0
  1 16  1  0  0  0
 16 17  1  0  0  0
 17 18  1  0  0  0
 18 19  1  0  0  0
 19 20  1  0  0  0
 20 23  1  0  0  0
 23 24  1  0  0  0
 24 25  2  0  0  0
 25 26  1  0  0  0
 26 27  2  0  0  0
 27 28  1  0  0  0
 20 21  1  0  0  0
 21 22  1  0  0  0
  7  8  1  0  0  0
  8  9  2  0  0  0
 13 14  1  0  0  0
 14 15  2  0  0  0
 15 10  1  0  0  0
  9  4  1  0  0  0
 22 17  1  0  0  0
 28 24  1  0  0  0
 28 29  1  0  0  0
M  END
> <minimizedAffinity>
-7.25854

> <CNNscore>
0.1340654641

> <CNNaffinity>
6.3900156021

> <CNN_VS>
0.8566803932

> <CNNaffinity_variance>
0.1937318295

$$$$
[H]c1nc(-c2c([H])c([H])c(OC([H])([H])C([H])([H])C([H])([H])N3C([H])([H])C([H])([H])C([H])(C([H])([H])c4c([H])nc([H])n4[H])C([H])([H])C3([H])[H])c([H])c2[H])nc([H])c1[H]


 29 32  0  0  0  0  0  0  0  0999 V2000
    0.7699  -53.6534  -26.7785 C   0  0  0  0  0  0  0  0  0  0  0  0
   -0.6227  -53.5416  -26.1868 C   0  0  0  0  0  0  0  0  0  0  0  0
   -0.6716  -54.3748  -25.0696 O   0  0  0  0  0  0  0  0  0  0  0  0
   -0.4888  -52.9468  -21.0977 C   0  0  0  0  0  0  0  0  0  0  0  0
   -0.6656  -54.2854  -21.3729 C   0  0  0  0  0  0  0  0  0  0  0  0
   -0.7263  -54.7593  -22.6820 C   0  0  0  0  0  0  0  0  0  0  0  0
   -0.6110  -53.9012  -23.7538 C   0  0  0  0  0  0  0  0  0  0  0  0
   -0.4342  -52.5630  -23.4730 C   0  0  0  0  0  0  0  0  0  0  0  0
   -0.3732  -52.0870  -22.1681 C   0  0  0  0  0  0  0  0  0  0  0  0
   -0.3422  -51.5856  -17.1205 C   0  0  0  0  0  0  0  0  0  0  0  0
   -1.0605  -52.7101  -17.4631 C   0  0  0  0  0  0  0  0  0  0  0  0
   -1.0805  -53.1104  -18.7466 N   0  0  0  0  0  0  0  0  0  0  0  0
   -0.4266  -52.4602  -19.7238 C   0  0  0  0  0  0  0  0  0  0  0  0
    0.2702  -51.3676  -19.3854 N   0  0  0  0  0  0  0  0  0  0  0  0
    0.3303  -50.9120  -18.1079 C   0  0  0  0  0  0  0  0  0  0  0  0
    1.2922  -52.2570  -27.0295 C   0  0  0  0  0  0  0  0  0  0  0  0
    2.6348  -52.0699  -26.5114 N   0  0  0  0  0  0  0  0  0  0  0  0
    2.7349  -50.6914  -26.0705 C   0  0  0  0  0  0  0  0  0  0  0  0
    2.2885  -50.6110  -24.6051 C   0  0  0  0  0  0  0  0  0  0  0  0
    3.4156  -51.2016  -23.7969 C   0  0  0  0  0  0  0  0  0  0  0  0
    3.8107  -52.5062  -24.4012 C   0  0  0  0  0  0  0  0  0  0  0  0
    2.8095  -53.0024  -25.4179 C   0  0  0  0  0  0  0  0  0  0  0  0
    3.0689  -51.3080  -22.3306 C   0  0  0  0  0  0  0  0  0  0  0  0
    2.9204  -49.9437  -21.7863 C   0  0  0  0  0  0  0  0  0  0  0  0
    3.8162  -48.9086  -21.8246 C   0  0  0  0  0  0  0  0  0  0  0  0
    3.2816  -47.8529  -21.2156 N   0  0  0  0  0  0  0  0  0  0  0  0
    2.0615  -48.1964  -20.7902 C   0  0  0  0  0  0  0  0  0  0  0  0
    1.8471  -49.4702  -21.1404 N   0  0  0  0  0  0  0  0  0  0  0  0
    0.9618  -50.0131  -20.9346 H   0  0  0  0  0  0  0  0  0  0  0  0
 10 11  2  0  0  0
 11 12  1  0  0  0
 12 13  2  0  0  0
 13  4  1  0  0  0
  4  5  2  0  0  0
  5  6  1  0  0  0
  6  7  2  0  0  0
  7  3  1  0  0  0
  3  2  1  0  0  0
  2  1  1  0  0  0
  1 16  1  0  0  0
 16 17  1  0  0  0
 17 18  1  0  0  0
 18 19  1  0  0  0
 19 20  1  0  0  0
 20 23  1  0  0  0
 23 24  1  0  0  0
 24 25  2  0  0  0
 25 26  1  0  0  0
 26 27  2  0  0  0
 27 28  1  0  0  0
 20 21  1  0  0  0
 21 22  1  0  0  0
  7  8  1  0  0  0
  8  9  2  0  0  0
 13 14  1  0  0  0
 14 15  2  0  0  0
 15 10  1  0  0  0
  9  4  1  0  0  0
 22 17  1  0  0  0
 28 24  1  0  0  0
 28 29  1  0  0  0
M  END
> <minimizedAffinity>
-6.93119

> <CNNscore>
0.1045251414

> <CNNaffinity>
6.3264632225

> <CNN_VS>
0.6612744927

> <CNNaffinity_variance>
0.1840025038

$$$$
[H]OC(=O)[C@]1([H])N([H])[C@@]([H])(C([H])([H])C([H])([H])c2c([H])c([H])c([H])c([H])c2[H])C(=O)N([H])[C@]([H])(C(=O)N([H])C([H])([H])[H])C([H])([H])C([H])([H])C(=O)OC([H])([H])C([H])([H])N([H])C(=O)C([H])([H])C1([H])[H]


 39 40  0  0  0  0  0  0  0  0999 V2000
    0.2509  -55.0635  -24.3951 C   0  0  0  0  0  0  0  0  0  0  0  0
    0.3359  -54.7071  -22.9475 C   0  0  0  0  0  0  0  0  0  0  0  0
   -0.6168  -55.3796  -22.0227 C   0  0  0  0  0  0  0  0  0  0  0  0
   -1.1402  -54.3880  -21.0129 C   0  0  0  0  0  0  0  0  0  0  0  0
   -2.2753  -53.8634  -21.2790 O   0  0  0  0  0  0  0  0  0  0  0  0
   -0.4806  -54.0390  -19.8704 O   0  0  0  0  0  0  0  0  0  0  0  0
    0.8254  -53.6137  -19.6972 C   0  0  0  0  0  0  0  0  0  0  0  0
    0.9959  -52.0943  -19.7019 C   0  0  0  0  0  0  0  0  0  0  0  0
    2.3790  -51.7987  -19.9557 N   0  0  0  0  0  0  0  0  0  0  0  0
    2.9000  -50.6358  -20.5655 C   0  0  0  0  0  0  0  0  0  0  0  0
    3.9015  -50.0271  -20.0515 O   0  0  0  0  0  0  0  0  0  0  0  0
    2.3592  -50.0241  -21.8180 C   0  0  0  0  0  0  0  0  0  0  0  0
    1.9594  -51.0589  -22.8182 C   0  0  0  0  0  0  0  0  0  0  0  0
    3.0482  -51.4897  -23.7779 C   0  0  0  0  0  0  0  0  0  0  0  0
    2.4826  -52.4367  -24.6942 N   0  0  0  0  0  0  0  0  0  0  0  0
    1.4525  -52.0628  -25.5595 C   0  0  0  0  0  0  0  0  0  0  0  0
    0.1095  -52.6557  -25.3080 C   0  0  0  0  0  0  0  0  0  0  0  0
   -0.8300  -51.7980  -25.1529 O   0  0  0  0  0  0  0  0  0  0  0  0
   -0.2683  -53.9836  -25.2211 N   0  0  0  0  0  0  0  0  0  0  0  0
    3.0939  -52.5235  -19.6538 H   0  0  0  0  0  0  0  0  0  0  0  0
    3.1972  -53.0955  -24.9948 H   0  0  0  0  0  0  0  0  0  0  0  0
   -1.0761  -54.3017  -25.8552 H   0  0  0  0  0  0  0  0  0  0  0  0
   -2.3049  -57.9008  -24.0194 C   0  0  0  0  0  0  0  0  0  0  0  0
   -1.5893  -56.6639  -23.8352 N   0  0  0  0  0  0  0  0  0  0  0  0
   -0.4631  -56.3345  -24.6026 C   0  0  0  0  0  0  0  0  0  0  0  0
   -0.0642  -57.1291  -25.4694 O   0  0  0  0  0  0  0  0  0  0  0  0
   -1.9202  -55.9955  -23.1085 H   0  0  0  0  0  0  0  0  0  0  0  0
    3.7720  -50.3643  -24.3649 C   0  0  0  0  0  0  0  0  0  0  0  0
    4.9979  -50.3066  -24.6137 O   0  0  0  0  0  0  0  0  0  0  0  0
    3.0117  -49.2234  -24.6813 O   0  0  0  0  0  0  0  0  0  0  0  0
    3.0229  -48.4927  -23.9823 H   0  0  0  0  0  0  0  0  0  0  0  0
    1.8088  -52.2257  -27.0418 C   0  0  0  0  0  0  0  0  0  0  0  0
    0.9841  -51.3355  -27.9072 C   0  0  0  0  0  0  0  0  0  0  0  0
   -0.3371  -51.9561  -28.2414 C   0  0  0  0  0  0  0  0  0  0  0  0
   -1.4108  -51.9079  -27.4060 C   0  0  0  0  0  0  0  0  0  0  0  0
   -2.5846  -52.5193  -27.8301 C   0  0  0  0  0  0  0  0  0  0  0  0
   -2.6802  -53.1585  -29.0511 C   0  0  0  0  0  0  0  0  0  0  0  0
   -1.5873  -53.1995  -29.8850 C   0  0  0  0  0  0  0  0  0  0  0  0
   -0.4288  -52.5923  -29.4589 C   0  0  0  0  0  0  0  0  0  0  0  0
 23 24  1  0  0  0
 24 25  1  0  0  0
 25 26  2  0  0  0
 25  1  1  0  0  0
  1  2  1  0  0  0
  2  3  1  0  0  0
  3  4  1  0  0  0
  4  5  2  0  0  0
  4  6  1  0  0  0
  6  7  1  0  0  0
  7  8  1  0  0  0
  8  9  1  0  0  0
  9 10  1  0  0  0
 10 11  2  0  0  0
 10 12  1  0  0  0
 12 13  1  0  0  0
 13 14  1  0  0  0
 14 28  1  0  0  0
 28 29  2  0  0  0
 28 30  1  0  0  0
 14 15  1  0  0  0
 15 16  1  0  0  0
 16 32  1  0  0  0
 32 33  1  0  0  0
 33 34  1  0  0  0
 34 35  2  0  0  0
 35 36  1  0  0  0
 36 37  2  0  0  0
 37 38  1  0  0  0
 38 39  2  0  0  0
 16 17  1  0  0  0
 17 18  2  0  0  0
 17 19  1  0  0  0
 19  1  1  0  0  0
 39 34  1  0  0  0
 24 27  1  0  0  0
  9 20  1  0  0  0
 30 31  1  0  0  0
 15 21  1  0  0  0
 19 22  1  0  0  0
M  END
> <minimizedAffinity>
3.45607

> <CNNscore>
0.4814616442

> <CNNaffinity>
6.3647394180

> <CNN_VS>
3.0643780231

> <CNNaffinity_variance>
0.4321812689

$$$$
[H]OC(=O)[C@]1([H])N([H])[C@@]([H])(C([H])([H])C([H])([H])c2c([H])c([H])c([H])c([H])c2[H])C(=O)N([H])[C@]([H])(C(=O)N([H])C([H])([H])[H])C([H])([H])C([H])([H])C(=O)OC([H])([H])C([H])([H])N([H])C(=O)C([H])([H])C1([H])[H]


 39 40  0  0  0  0  0  0  0  0999 V2000
    1.4647  -51.7319  -20.5559 C   0  0  0  0  0  0  0  0  0  0  0  0
    1.2798  -51.7730  -19.0747 C   0  0  0  0  0  0  0  0  0  0  0  0
    0.1458  -52.5827  -18.5515 C   0  0  0  0  0  0  0  0  0  0  0  0
   -0.5314  -51.8489  -17.4201 C   0  0  0  0  0  0  0  0  0  0  0  0
   -1.5767  -51.1818  -17.7312 O   0  0  0  0  0  0  0  0  0  0  0  0
   -0.0941  -51.8648  -16.1276 O   0  0  0  0  0  0  0  0  0  0  0  0
    1.1665  -51.6078  -15.6165 C   0  0  0  0  0  0  0  0  0  0  0  0
    1.3822  -50.1590  -15.1785 C   0  0  0  0  0  0  0  0  0  0  0  0
    2.7969  -49.9219  -15.0927 N   0  0  0  0  0  0  0  0  0  0  0  0
    3.4619  -48.6871  -15.2617 C   0  0  0  0  0  0  0  0  0  0  0  0
    4.3640  -48.3175  -14.4325 O   0  0  0  0  0  0  0  0  0  0  0  0
    3.1926  -47.7280  -16.3766 C   0  0  0  0  0  0  0  0  0  0  0  0
    2.9612  -48.4302  -17.6745 C   0  0  0  0  0  0  0  0  0  0  0  0
    4.2008  -48.6840  -18.5059 C   0  0  0  0  0  0  0  0  0  0  0  0
    3.7933  -49.3100  -19.7300 N   0  0  0  0  0  0  0  0  0  0  0  0
    2.9619  -48.6404  -20.6301 C   0  0  0  0  0  0  0  0  0  0  0  0
    1.5777  -49.1662  -20.7914 C   0  0  0  0  0  0  0  0  0  0  0  0
    0.6533  -48.3045  -20.5789 O   0  0  0  0  0  0  0  0  0  0  0  0
    1.1489  -50.4353  -21.1366 N   0  0  0  0  0  0  0  0  0  0  0  0
    3.4169  -50.7564  -14.8769 H   0  0  0  0  0  0  0  0  0  0  0  0
    4.5315  -49.9240  -20.0662 H   0  0  0  0  0  0  0  0  0  0  0  0
    0.4691  -50.5099  -21.9662 H   0  0  0  0  0  0  0  0  0  0  0  0
   -1.2099  -54.3393  -21.4339 C   0  0  0  0  0  0  0  0  0  0  0  0
   -0.5048  -53.2563  -20.7968 N   0  0  0  0  0  0  0  0  0  0  0  0
    0.7648  -52.8420  -21.2238 C   0  0  0  0  0  0  0  0  0  0  0  0
    1.3044  -53.4223  -22.1797 O   0  0  0  0  0  0  0  0  0  0  0  0
   -0.9537  -52.7680  -19.9942 H   0  0  0  0  0  0  0  0  0  0  0  0
    5.0591  -47.5078  -18.6274 C   0  0  0  0  0  0  0  0  0  0  0  0
    4.9476  -46.5787  -19.4595 O   0  0  0  0  0  0  0  0  0  0  0  0
    6.1258  -47.4102  -17.7149 O   0  0  0  0  0  0  0  0  0  0  0  0
    7.0174  -47.7393  -18.0601 H   0  0  0  0  0  0  0  0  0  0  0  0
    3.5924  -48.4403  -22.0132 C   0  0  0  0  0  0  0  0  0  0  0  0
    2.8791  -47.3921  -22.7968 C   0  0  0  0  0  0  0  0  0  0  0  0
    3.6561  -46.9815  -24.0093 C   0  0  0  0  0  0  0  0  0  0  0  0
    4.6407  -46.0421  -23.9754 C   0  0  0  0  0  0  0  0  0  0  0  0
    5.2923  -45.7489  -25.1673 C   0  0  0  0  0  0  0  0  0  0  0  0
    4.9684  -46.3758  -26.3551 C   0  0  0  0  0  0  0  0  0  0  0  0
    3.9714  -47.3229  -26.3746 C   0  0  0  0  0  0  0  0  0  0  0  0
    3.3307  -47.6083  -25.1912 C   0  0  0  0  0  0  0  0  0  0  0  0
 23 24  1  0  0  0
 24 25  1  0  0  0
 25 26  2  0  0  0
 25  1  1  0  0  0
  1  2  1  0  0  0
  2  3  1  0  0  0
  3  4  1  0  0  0
  4  5  2  0  0  0
  4  6  1  0  0  0
  6  7  1  0  0  0
  7  8  1  0  0  0
  8  9  1  0  0  0
  9 10  1  0  0  0
 10 11  2  0  0  0
 10 12  1  0  0  0
 12 13  1  0  0  0
 13 14  1  0  0  0
 14 28  1  0  0  0
 28 29  2  0  0  0
 28 30  1  0  0  0
 14 15  1  0  0  0
 15 16  1  0  0  0
 16 32  1  0  0  0
 32 33  1  0  0  0
 33 34  1  0  0  0
 34 35  2  0  0  0
 35 36  1  0  0  0
 36 37  2  0  0  0
 37 38  1  0  0  0
 38 39  2  0  0  0
 16 17  1  0  0  0
 17 18  2  0  0  0
 17 19  1  0  0  0
 19  1  1  0  0  0
 39 34  1  0  0  0
 24 27  1  0  0  0
  9 20  1  0  0  0
 30 31  1  0  0  0
 15 21  1  0  0  0
 19 22  1  0  0  0
M  END
> <minimizedAffinity>
-3.85383

> <CNNscore>
0.4173513055

> <CNNaffinity>
5.6899785995

> <CNN_VS>
2.3747200966

> <CNNaffinity_variance>
1.7082316875

$$$$
[H]OC(=O)[C@]1([H])N([H])[C@@]([H])(C([H])([H])C([H])([H])c2c([H])c([H])c([H])c([H])c2[H])C(=O)N([H])[C@]([H])(C(=O)N([H])C([H])([H])[H])C([H])([H])C([H])([H])C(=O)OC([H])([H])C([H])([H])N([H])C(=O)C([H])([H])C1([H])[H]


 39 40  0  0  0  0  0  0  0  0999 V2000
    0.2112  -53.9432  -22.4859 C   0  0  0  0  0  0  0  0  0  0  0  0
   -0.0941  -53.6498  -21.0539 C   0  0  0  0  0  0  0  0  0  0  0  0
   -1.4075  -54.1123  -20.5283 C   0  0  0  0  0  0  0  0  0  0  0  0
   -2.0068  -53.0527  -19.6366 C   0  0  0  0  0  0  0  0  0  0  0  0
   -2.8654  -52.2797  -20.1840 O   0  0  0  0  0  0  0  0  0  0  0  0
   -1.6851  -52.8886  -18.3207 O   0  0  0  0  0  0  0  0  0  0  0  0
   -0.4427  -52.7726  -17.7210 C   0  0  0  0  0  0  0  0  0  0  0  0
    0.0302  -51.3310  -17.5320 C   0  0  0  0  0  0  0  0  0  0  0  0
    1.4522  -51.3485  -17.3260 N   0  0  0  0  0  0  0  0  0  0  0  0
    2.3674  -50.3186  -17.6381 C   0  0  0  0  0  0  0  0  0  0  0  0
    3.2579  -49.9636  -16.7903 O   0  0  0  0  0  0  0  0  0  0  0  0
    2.3888  -49.5711  -18.9327 C   0  0  0  0  0  0  0  0  0  0  0  0
    2.1213  -50.4651  -20.0990 C   0  0  0  0  0  0  0  0  0  0  0  0
    3.3440  -51.1071  -20.7195 C   0  0  0  0  0  0  0  0  0  0  0  0
    2.9144  -51.8802  -21.8483 N   0  0  0  0  0  0  0  0  0  0  0  0
    2.3113  -51.2633  -22.9462 C   0  0  0  0  0  0  0  0  0  0  0  0
    0.8658  -51.5443  -23.1698 C   0  0  0  0  0  0  0  0  0  0  0  0
    0.1238  -50.5010  -23.2274 O   0  0  0  0  0  0  0  0  0  0  0  0
    0.2145  -52.7547  -23.3259 N   0  0  0  0  0  0  0  0  0  0  0  0
    1.8691  -52.2227  -16.8908 H   0  0  0  0  0  0  0  0  0  0  0  0
    3.5352  -52.6756  -21.9783 H   0  0  0  0  0  0  0  0  0  0  0  0
   -0.3988  -52.8674  -24.2017 H   0  0  0  0  0  0  0  0  0  0  0  0
   -1.1185  -56.7613  -24.7249 C   0  0  0  0  0  0  0  0  0  0  0  0
   -0.2963  -55.7086  -24.1849 N   0  0  0  0  0  0  0  0  0  0  0  0
   -0.6466  -55.0154  -23.0177 C   0  0  0  0  0  0  0  0  0  0  0  0
   -1.6971  -55.3125  -22.4260 O   0  0  0  0  0  0  0  0  0  0  0  0
    0.5849  -55.4560  -24.6790 H   0  0  0  0  0  0  0  0  0  0  0  0
    4.4320  -50.1599  -20.9519 C   0  0  0  0  0  0  0  0  0  0  0  0
    5.6154  -50.2625  -20.5554 O   0  0  0  0  0  0  0  0  0  0  0  0
    4.1160  -49.0091  -21.6974 O   0  0  0  0  0  0  0  0  0  0  0  0
    3.9037  -48.1869  -21.1484 H   0  0  0  0  0  0  0  0  0  0  0  0
    3.0762  -51.4668  -24.2592 C   0  0  0  0  0  0  0  0  0  0  0  0
    3.0940  -52.8997  -24.6695 C   0  0  0  0  0  0  0  0  0  0  0  0
    2.5265  -53.0904  -26.0420 C   0  0  0  0  0  0  0  0  0  0  0  0
    3.2302  -52.8294  -27.1776 C   0  0  0  0  0  0  0  0  0  0  0  0
    2.5946  -53.0491  -28.3938 C   0  0  0  0  0  0  0  0  0  0  0  0
    1.2962  -53.5148  -28.4706 C   0  0  0  0  0  0  0  0  0  0  0  0
    0.5971  -53.7742  -27.3150 C   0  0  0  0  0  0  0  0  0  0  0  0
    1.2324  -53.5547  -26.1147 C   0  0  0  0  0  0  0  0  0  0  0  0
 23 24  1  0  0  0
 24 25  1  0  0  0
 25 26  2  0  0  0
 25  1  1  0  0  0
  1  2  1  0  0  0
  2  3  1  0  0  0
  3  4  1  0  0  0
  4  5  2  0  0  0
  4  6  1  0  0  0
  6  7  1  0  0  0
  7  8  1  0  0  0
  8  9  1  0  0  0
  9 10  1  0  0  0
 10 11  2  0  0  0
 10 12  1  0  0  0
 12 13  1  0  0  0
 13 14  1  0  0  0
 14 28  1  0  0  0
 28 29  2  0  0  0
 28 30  1  0  0  0
 14 15  1  0  0  0
 15 16  1  0  0  0
 16 32  1  0  0  0
 32 33  1  0  0  0
 33 34  1  0  0  0
 34 35  2  0  0  0
 35 36  1  0  0  0
 36 37  2  0  0  0
 37 38  1  0  0  0
 38 39  2  0  0  0
 16 17  1  0  0  0
 17 18  2  0  0  0
 17 19  1  0  0  0
 19  1  1  0  0  0
 39 34  1  0  0  0
 24 27  1  0  0  0
  9 20  1  0  0  0
 30 31  1  0  0  0
 15 21  1  0  0  0
 19 22  1  0  0  0
M  END
> <minimizedAffinity>
-3.15213

> <CNNscore>
0.4079360664

> <CNNaffinity>
6.0350008011

> <CNN_VS>
2.4618945122

> <CNNaffinity_variance>
0.2206083536

$$$$
[H]OC(=O)[C@]1([H])N([H])[C@@]([H])(C([H])([H])C([H])([H])c2c([H])c([H])c([H])c([H])c2[H])C(=O)N([H])[C@]([H])(C(=O)N([H])C([H])([H])[H])C([H])([H])C([H])([H])C(=O)OC([H])([H])C([H])([H])N([H])C(=O)C([H])([H])C1([H])[H]


 39 40  0  0  0  0  0  0  0  0999 V2000
   -0.7617  -51.9339  -19.4268 C   0  0  0  0  0  0  0  0  0  0  0  0
    0.2206  -50.8480  -19.1345 C   0  0  0  0  0  0  0  0  0  0  0  0
    1.4649  -50.8166  -19.9506 C   0  0  0  0  0  0  0  0  0  0  0  0
    2.6484  -50.4930  -19.0721 C   0  0  0  0  0  0  0  0  0  0  0  0
    3.3310  -51.4927  -18.6610 O   0  0  0  0  0  0  0  0  0  0  0  0
    3.0092  -49.2277  -18.7100 O   0  0  0  0  0  0  0  0  0  0  0  0
    2.2466  -48.2145  -18.1549 C   0  0  0  0  0  0  0  0  0  0  0  0
    2.2917  -48.1606  -16.6276 C   0  0  0  0  0  0  0  0  0  0  0  0
    1.1639  -47.3958  -16.1719 N   0  0  0  0  0  0  0  0  0  0  0  0
    0.5002  -47.5199  -14.9311 C   0  0  0  0  0  0  0  0  0  0  0  0
    0.2111  -46.4799  -14.2434 O   0  0  0  0  0  0  0  0  0  0  0  0
    0.0858  -48.8204  -14.3209 C   0  0  0  0  0  0  0  0  0  0  0  0
   -0.4382  -49.7756  -15.3427 C   0  0  0  0  0  0  0  0  0  0  0  0
   -1.9270  -49.6935  -15.6057 C   0  0  0  0  0  0  0  0  0  0  0  0
   -2.2649  -50.7068  -16.5623 N   0  0  0  0  0  0  0  0  0  0  0  0
   -2.0890  -52.0587  -16.2602 C   0  0  0  0  0  0  0  0  0  0  0  0
   -1.0245  -52.7853  -17.0066 C   0  0  0  0  0  0  0  0  0  0  0  0
   -0.1519  -53.3598  -16.2642 O   0  0  0  0  0  0  0  0  0  0  0  0
   -0.8437  -52.9315  -18.3702 N   0  0  0  0  0  0  0  0  0  0  0  0
    0.7828  -46.6538  -16.8290 H   0  0  0  0  0  0  0  0  0  0  0  0
   -3.0558  -50.4010  -17.1244 H   0  0  0  0  0  0  0  0  0  0  0  0
   -0.7433  -53.9352  -18.7424 H   0  0  0  0  0  0  0  0  0  0  0  0
   -0.2886  -52.2846  -23.2184 C   0  0  0  0  0  0  0  0  0  0  0  0
   -0.5050  -51.7280  -21.9071 N   0  0  0  0  0  0  0  0  0  0  0  0
   -0.5391  -52.5274  -20.7558 C   0  0  0  0  0  0  0  0  0  0  0  0
   -0.3792  -53.7541  -20.8623 O   0  0  0  0  0  0  0  0  0  0  0  0
   -0.6406  -50.6997  -21.8141 H   0  0  0  0  0  0  0  0  0  0  0  0
   -2.7234  -49.6589  -14.3812 C   0  0  0  0  0  0  0  0  0  0  0  0
   -3.9728  -49.6486  -14.2972 O   0  0  0  0  0  0  0  0  0  0  0  0
   -2.0113  -49.6312  -13.1679 O   0  0  0  0  0  0  0  0  0  0  0  0
   -1.8823  -48.7119  -12.7668 H   0  0  0  0  0  0  0  0  0  0  0  0
   -3.3882  -52.8712  -16.3108 C   0  0  0  0  0  0  0  0  0  0  0  0
   -4.5121  -52.1542  -15.6441 C   0  0  0  0  0  0  0  0  0  0  0  0
   -5.4111  -53.0973  -14.9061 C   0  0  0  0  0  0  0  0  0  0  0  0
   -6.1746  -54.0352  -15.5312 C   0  0  0  0  0  0  0  0  0  0  0  0
   -6.9666  -54.8549  -14.7362 C   0  0  0  0  0  0  0  0  0  0  0  0
   -6.9937  -54.7393  -13.3597 C   0  0  0  0  0  0  0  0  0  0  0  0
   -6.2172  -53.7871  -12.7417 C   0  0  0  0  0  0  0  0  0  0  0  0
   -5.4356  -52.9792  -13.5346 C   0  0  0  0  0  0  0  0  0  0  0  0
 23 24  1  0  0  0
 24 25  1  0  0  0
 25 26  2  0  0  0
 25  1  1  0  0  0
  1  2  1  0  0  0
  2  3  1  0  0  0
  3  4  1  0  0  0
  4  5  2  0  0  0
  4  6  1  0  0  0
  6  7  1  0  0  0
  7  8  1  0  0  0
  8  9  1  0  0  0
  9 10  1  0  0  0
 10 11  2  0  0  0
 10 12  1  0  0  0
 12 13  1  0  0  0
 13 14  1  0  0  0
 14 28  1  0  0  0
 28 29  2  0  0  0
 28 30  1  0  0  0
 14 15  1  0  0  0
 15 16  1  0  0  0
 16 32  1  0  0  0
 32 33  1  0  0  0
 33 34  1  0  0  0
 34 35  2  0  0  0
 35 36  1  0  0  0
 36 37  2  0  0  0
 37 38  1  0  0  0
 38 39  2  0  0  0
 16 17  1  0  0  0
 17 18  2  0  0  0
 17 19  1  0  0  0
 19  1  1  0  0  0
 39 34  1  0  0  0
 24 27  1  0  0  0
  9 20  1  0  0  0
 30 31  1  0  0  0
 15 21  1  0  0  0
 19 22  1  0  0  0
M  END
> <minimizedAffinity>
-4.02001

> <CNNscore>
0.4011408985

> <CNNaffinity>
5.6617155075

> <CNN_VS>
2.2711455822

> <CNNaffinity_variance>
0.1884638369

$$$$
[H]OC(=O)[C@]1([H])N([H])[C@@]([H])(C([H])([H])C([H])([H])c2c([H])c([H])c([H])c([H])c2[H])C(=O)N([H])[C@]([H])(C(=O)N([H])C([H])([H])[H])C([H])([H])C([H])([H])C(=O)OC([H])([H])C([H])([H])N([H])C(=O)C([H])([H])C1([H])[H]


 39 40  0  0  0  0  0  0  0  0999 V2000
    3.6713  -48.2812  -25.7681 C   0  0  0  0  0  0  0  0  0  0  0  0
    3.9196  -49.7426  -25.9482 C   0  0  0  0  0  0  0  0  0  0  0  0
    3.5149  -50.3480  -27.2463 C   0  0  0  0  0  0  0  0  0  0  0  0
    2.8807  -51.6966  -27.0095 C   0  0  0  0  0  0  0  0  0  0  0  0
    1.6029  -51.7163  -26.9737 O   0  0  0  0  0  0  0  0  0  0  0  0
    3.5840  -52.8534  -26.8381 O   0  0  0  0  0  0  0  0  0  0  0  0
    4.6338  -53.1321  -25.9799 C   0  0  0  0  0  0  0  0  0  0  0  0
    4.2074  -53.7447  -24.6457 C   0  0  0  0  0  0  0  0  0  0  0  0
    5.2854  -53.5781  -23.7103 N   0  0  0  0  0  0  0  0  0  0  0  0
    5.1815  -53.4787  -22.3050 C   0  0  0  0  0  0  0  0  0  0  0  0
    5.9600  -54.1557  -21.5476 O   0  0  0  0  0  0  0  0  0  0  0  0
    4.1957  -52.6114  -21.5899 C   0  0  0  0  0  0  0  0  0  0  0  0
    4.0178  -51.2918  -22.2668 C   0  0  0  0  0  0  0  0  0  0  0  0
    4.9578  -50.1959  -21.8112 C   0  0  0  0  0  0  0  0  0  0  0  0
    4.6150  -48.9957  -22.5171 N   0  0  0  0  0  0  0  0  0  0  0  0
    3.3618  -48.4034  -22.3485 C   0  0  0  0  0  0  0  0  0  0  0  0
    2.4327  -48.4444  -23.5119 C   0  0  0  0  0  0  0  0  0  0  0  0
    1.2934  -48.9765  -23.2644 O   0  0  0  0  0  0  0  0  0  0  0  0
    2.6172  -47.9937  -24.8067 N   0  0  0  0  0  0  0  0  0  0  0  0
    6.2689  -53.5260  -24.1070 H   0  0  0  0  0  0  0  0  0  0  0  0
    5.4452  -48.4219  -22.6461 H   0  0  0  0  0  0  0  0  0  0  0  0
    1.8767  -47.3187  -25.1967 H   0  0  0  0  0  0  0  0  0  0  0  0
    3.9834  -45.7370  -28.6234 C   0  0  0  0  0  0  0  0  0  0  0  0
    4.1637  -46.4222  -27.3688 N   0  0  0  0  0  0  0  0  0  0  0  0
    3.4690  -47.5996  -27.0576 C   0  0  0  0  0  0  0  0  0  0  0  0
    2.6716  -48.0718  -27.8840 O   0  0  0  0  0  0  0  0  0  0  0  0
    4.8308  -46.0286  -26.6729 H   0  0  0  0  0  0  0  0  0  0  0  0
    5.0555  -50.0937  -20.3569 C   0  0  0  0  0  0  0  0  0  0  0  0
    4.3002  -50.6286  -19.5134 O   0  0  0  0  0  0  0  0  0  0  0  0
    6.1077  -49.3086  -19.8505 O   0  0  0  0  0  0  0  0  0  0  0  0
    5.8577  -48.3583  -19.6116 H   0  0  0  0  0  0  0  0  0  0  0  0
    3.4296  -46.9718  -21.8042 C   0  0  0  0  0  0  0  0  0  0  0  0
    2.4724  -46.7641  -20.6807 C   0  0  0  0  0  0  0  0  0  0  0  0
    3.1415  -46.9074  -19.3487 C   0  0  0  0  0  0  0  0  0  0  0  0
    3.2904  -48.1052  -18.7193 C   0  0  0  0  0  0  0  0  0  0  0  0
    3.9321  -48.1095  -17.4866 C   0  0  0  0  0  0  0  0  0  0  0  0
    4.4092  -46.9518  -16.9027 C   0  0  0  0  0  0  0  0  0  0  0  0
    4.2516  -45.7486  -17.5500 C   0  0  0  0  0  0  0  0  0  0  0  0
    3.6156  -45.7517  -18.7698 C   0  0  0  0  0  0  0  0  0  0  0  0
 23 24  1  0  0  0
 24 25  1  0  0  0
 25 26  2  0  0  0
 25  1  1  0  0  0
  1  2  1  0  0  0
  2  3  1  0  0  0
  3  4  1  0  0  0
  4  5  2  0  0  0
  4  6  1  0  0  0
  6  7  1  0  0  0
  7  8  1  0  0  0
  8  9  1  0  0  0
  9 10  1  0  0  0
 10 11  2  0  0  0
 10 12  1  0  0  0
 12 13  1  0  0  0
 13 14  1  0  0  0
 14 28  1  0  0  0
 28 29  2  0  0  0
 28 30  1  0  0  0
 14 15  1  0  0  0
 15 16  1  0  0  0
 16 32  1  0  0  0
 32 33  1  0  0  0
 33 34  1  0  0  0
 34 35  2  0  0  0
 35 36  1  0  0  0
 36 37  2  0  0  0
 37 38  1  0  0  0
 38 39  2  0  0  0
 16 17  1  0  0  0
 17 18  2  0  0  0
 17 19  1  0  0  0
 19  1  1  0  0  0
 39 34  1  0  0  0
 24 27  1  0  0  0
  9 20  1  0  0  0
 30 31  1  0  0  0
 15 21  1  0  0  0
 19 22  1  0  0  0
M  END
> <minimizedAffinity>
5.21505

> <CNNscore>
0.3931628168

> <CNNaffinity>
5.1106176376

> <CNN_VS>
2.0093047619

> <CNNaffinity_variance>
0.6757690310

$$$$
[H]OC(=O)[C@]1([H])N([H])[C@@]([H])(C([H])([H])C([H])([H])c2c([H])c([H])c([H])c([H])c2[H])C(=O)N([H])[C@]([H])(C(=O)N([H])C([H])([H])[H])C([H])([H])C([H])([H])C(=O)OC([H])([H])C([H])([H])N([H])C(=O)C([H])([H])C1([H])[H]


 39 40  0  0  0  0  0  0  0  0999 V2000
   -0.0427  -54.3483  -23.5256 C   0  0  0  0  0  0  0  0  0  0  0  0
    0.1085  -53.9458  -22.0956 C   0  0  0  0  0  0  0  0  0  0  0  0
   -0.9475  -54.3919  -21.1464 C   0  0  0  0  0  0  0  0  0  0  0  0
   -1.2815  -53.2763  -20.1868 C   0  0  0  0  0  0  0  0  0  0  0  0
   -2.3041  -52.5690  -20.4839 O   0  0  0  0  0  0  0  0  0  0  0  0
   -0.5670  -52.9986  -19.0578 O   0  0  0  0  0  0  0  0  0  0  0  0
    0.7946  -52.8076  -18.8966 C   0  0  0  0  0  0  0  0  0  0  0  0
    1.2358  -51.3457  -18.9708 C   0  0  0  0  0  0  0  0  0  0  0  0
    2.6489  -51.3159  -19.2295 N   0  0  0  0  0  0  0  0  0  0  0  0
    3.3692  -50.2955  -19.8895 C   0  0  0  0  0  0  0  0  0  0  0  0
    4.4652  -49.8535  -19.3982 O   0  0  0  0  0  0  0  0  0  0  0  0
    2.9444  -49.6556  -21.1722 C   0  0  0  0  0  0  0  0  0  0  0  0
    2.3625  -50.6472  -22.1258 C   0  0  0  0  0  0  0  0  0  0  0  0
    3.3537  -51.3112  -23.0579 C   0  0  0  0  0  0  0  0  0  0  0  0
    2.6246  -52.1827  -23.9327 N   0  0  0  0  0  0  0  0  0  0  0  0
    1.6766  -51.6704  -24.8207 C   0  0  0  0  0  0  0  0  0  0  0  0
    0.2494  -51.9996  -24.5500 C   0  0  0  0  0  0  0  0  0  0  0  0
   -0.5200  -50.9806  -24.4405 O   0  0  0  0  0  0  0  0  0  0  0  0
   -0.3610  -53.2324  -24.4040 N   0  0  0  0  0  0  0  0  0  0  0  0
    3.2223  -52.1426  -18.8901 H   0  0  0  0  0  0  0  0  0  0  0  0
    3.2083  -52.9726  -24.1981 H   0  0  0  0  0  0  0  0  0  0  0  0
   -1.2144  -53.4291  -25.0275 H   0  0  0  0  0  0  0  0  0  0  0  0
   -1.6698  -57.5666  -24.8364 C   0  0  0  0  0  0  0  0  0  0  0  0
   -0.7729  -56.4517  -24.6671 N   0  0  0  0  0  0  0  0  0  0  0  0
   -0.9743  -55.4784  -23.6783 C   0  0  0  0  0  0  0  0  0  0  0  0
   -1.9544  -55.5735  -22.9218 O   0  0  0  0  0  0  0  0  0  0  0  0
    0.0495  -56.3681  -25.3003 H   0  0  0  0  0  0  0  0  0  0  0  0
    4.2668  -50.3630  -23.6920 C   0  0  0  0  0  0  0  0  0  0  0  0
    3.9613  -49.4326  -24.4726 O   0  0  0  0  0  0  0  0  0  0  0  0
    5.6344  -50.5130  -23.3971 O   0  0  0  0  0  0  0  0  0  0  0  0
    6.1656  -51.0376  -24.0791 H   0  0  0  0  0  0  0  0  0  0  0  0
    1.9943  -51.9638  -26.2915 C   0  0  0  0  0  0  0  0  0  0  0  0
    1.4159  -53.2656  -26.7305 C   0  0  0  0  0  0  0  0  0  0  0  0
    0.3050  -53.0744  -27.7162 C   0  0  0  0  0  0  0  0  0  0  0  0
   -0.9848  -52.8480  -27.3443 C   0  0  0  0  0  0  0  0  0  0  0  0
   -1.9264  -52.6833  -28.3530 C   0  0  0  0  0  0  0  0  0  0  0  0
   -1.5877  -52.7436  -29.6911 C   0  0  0  0  0  0  0  0  0  0  0  0
   -0.2807  -52.9731  -30.0523 C   0  0  0  0  0  0  0  0  0  0  0  0
    0.6461  -53.1351  -29.0487 C   0  0  0  0  0  0  0  0  0  0  0  0
 23 24  1  0  0  0
 24 25  1  0  0  0
 25 26  2  0  0  0
 25  1  1  0  0  0
  1  2  1  0  0  0
  2  3  1  0  0  0
  3  4  1  0  0  0
  4  5  2  0  0  0
  4  6  1  0  0  0
  6  7  1  0  0  0
  7  8  1  0  0  0
  8  9  1  0  0  0
  9 10  1  0  0  0
 10 11  2  0  0  0
 10 12  1  0  0  0
 12 13  1  0  0  0
 13 14  1  0  0  0
 14 28  1  0  0  0
 28 29  2  0  0  0
 28 30  1  0  0  0
 14 15  1  0  0  0
 15 16  1  0  0  0
 16 32  1  0  0  0
 32 33  1  0  0  0
 33 34  1  0  0  0
 34 35  2  0  0  0
 35 36  1  0  0  0
 36 37  2  0  0  0
 37 38  1  0  0  0
 38 39  2  0  0  0
 16 17  1  0  0  0
 17 18  2  0  0  0
 17 19  1  0  0  0
 19  1  1  0  0  0
 39 34  1  0  0  0
 24 27  1  0  0  0
  9 20  1  0  0  0
 30 31  1  0  0  0
 15 21  1  0  0  0
 19 22  1  0  0  0
M  END
> <minimizedAffinity>
-4.89983

> <CNNscore>
0.3711100519

> <CNNaffinity>
6.2428274155

> <CNN_VS>
2.3167760372

> <CNNaffinity_variance>
0.1896995008

$$$$
[H]OC(=O)[C@]1([H])N([H])[C@@]([H])(C([H])([H])C([H])([H])c2c([H])c([H])c([H])c([H])c2[H])C(=O)N([H])[C@]([H])(C(=O)N([H])C([H])([H])[H])C([H])([H])C([H])([H])C(=O)OC([H])([H])C([H])([H])N([H])C(=O)C([H])([H])C1([H])[H]


 39 40  0  0  0  0  0  0  0  0999 V2000
    3.4339  -50.6785  -21.2498 C   0  0  0  0  0  0  0  0  0  0  0  0
    2.6428  -51.5709  -22.1484 C   0  0  0  0  0  0  0  0  0  0  0  0
    2.9858  -51.5576  -23.5966 C   0  0  0  0  0  0  0  0  0  0  0  0
    1.7246  -51.5902  -24.4244 C   0  0  0  0  0  0  0  0  0  0  0  0
    1.3024  -50.4599  -24.8471 O   0  0  0  0  0  0  0  0  0  0  0  0
    1.0397  -52.7300  -24.7307 O   0  0  0  0  0  0  0  0  0  0  0  0
    0.5899  -53.7424  -23.9005 C   0  0  0  0  0  0  0  0  0  0  0  0
   -0.8505  -53.5654  -23.4194 C   0  0  0  0  0  0  0  0  0  0  0  0
   -1.0430  -54.3969  -22.2635 N   0  0  0  0  0  0  0  0  0  0  0  0
   -1.9531  -54.1808  -21.2049 C   0  0  0  0  0  0  0  0  0  0  0  0
   -2.6858  -55.1376  -20.7740 O   0  0  0  0  0  0  0  0  0  0  0  0
   -2.1455  -52.8709  -20.5103 C   0  0  0  0  0  0  0  0  0  0  0  0
   -0.8521  -52.1532  -20.3021 C   0  0  0  0  0  0  0  0  0  0  0  0
   -0.1355  -52.4683  -19.0062 C   0  0  0  0  0  0  0  0  0  0  0  0
    1.0471  -51.6596  -18.9453 N   0  0  0  0  0  0  0  0  0  0  0  0
    0.9563  -50.2668  -18.9054 C   0  0  0  0  0  0  0  0  0  0  0  0
    1.4320  -49.5236  -20.1053 C   0  0  0  0  0  0  0  0  0  0  0  0
    0.5629  -48.7367  -20.6228 O   0  0  0  0  0  0  0  0  0  0  0  0
    2.6636  -49.5564  -20.7345 N   0  0  0  0  0  0  0  0  0  0  0  0
   -0.4446  -55.2709  -22.1888 H   0  0  0  0  0  0  0  0  0  0  0  0
    1.7714  -52.1460  -18.4220 H   0  0  0  0  0  0  0  0  0  0  0  0
    3.1590  -48.6138  -20.8827 H   0  0  0  0  0  0  0  0  0  0  0  0
    6.0679  -49.8092  -23.9011 C   0  0  0  0  0  0  0  0  0  0  0  0
    4.8386  -50.2133  -23.2675 N   0  0  0  0  0  0  0  0  0  0  0  0
    4.7014  -50.2623  -21.8731 C   0  0  0  0  0  0  0  0  0  0  0  0
    5.6654  -49.9495  -21.1558 O   0  0  0  0  0  0  0  0  0  0  0  0
    4.0283  -50.4773  -23.8659 H   0  0  0  0  0  0  0  0  0  0  0  0
   -1.0159  -52.4275  -17.8408 C   0  0  0  0  0  0  0  0  0  0  0  0
   -1.5374  -51.4110  -17.3279 O   0  0  0  0  0  0  0  0  0  0  0  0
   -1.3062  -53.6604  -17.2279 O   0  0  0  0  0  0  0  0  0  0  0  0
   -0.7329  -53.8868  -16.4263 H   0  0  0  0  0  0  0  0  0  0  0  0
    1.5773  -49.6487  -17.6473 C   0  0  0  0  0  0  0  0  0  0  0  0
    2.7918  -50.3940  -17.2099 C   0  0  0  0  0  0  0  0  0  0  0  0
    2.7889  -50.6406  -15.7329 C   0  0  0  0  0  0  0  0  0  0  0  0
    2.3045  -49.7418  -14.8326 C   0  0  0  0  0  0  0  0  0  0  0  0
    2.3541  -50.0872  -13.4874 C   0  0  0  0  0  0  0  0  0  0  0  0
    2.8721  -51.2936  -13.0574 C   0  0  0  0  0  0  0  0  0  0  0  0
    3.3581  -52.1922  -13.9782 C   0  0  0  0  0  0  0  0  0  0  0  0
    3.3059  -51.8438  -15.3080 C   0  0  0  0  0  0  0  0  0  0  0  0
 23 24  1  0  0  0
 24 25  1  0  0  0
 25 26  2  0  0  0
 25  1  1  0  0  0
  1  2  1  0  0  0
  2  3  1  0  0  0
  3  4  1  0  0  0
  4  5  2  0  0  0
  4  6  1  0  0  0
  6  7  1  0  0  0
  7  8  1  0  0  0
  8  9  1  0  0  0
  9 10  1  0  0  0
 10 11  2  0  0  0
 10 12  1  0  0  0
 12 13  1  0  0  0
 13 14  1  0  0  0
 14 28  1  0  0  0
 28 29  2  0  0  0
 28 30  1  0  0  0
 14 15  1  0  0  0
 15 16  1  0  0  0
 16 32  1  0  0  0
 32 33  1  0  0  0
 33 34  1  0  0  0
 34 35  2  0  0  0
 35 36  1  0  0  0
 36 37  2  0  0  0
 37 38  1  0  0  0
 38 39  2  0  0  0
 16 17  1  0  0  0
 17 18  2  0  0  0
 17 19  1  0  0  0
 19  1  1  0  0  0
 39 34  1  0  0  0
 24 27  1  0  0  0
  9 20  1  0  0  0
 30 31  1  0  0  0
 15 21  1  0  0  0
 19 22  1  0  0  0
M  END
> <minimizedAffinity>
-3.71281

> <CNNscore>
0.2937951684

> <CNNaffinity>
5.2936630249

> <CNN_VS>
1.5552526712

> <CNNaffinity_variance>
0.1396380961

$$$$
[H]OC(=O)[C@]1([H])N([H])[C@@]([H])(C([H])([H])C([H])([H])c2c([H])c([H])c([H])c([H])c2[H])C(=O)N([H])[C@]([H])(C(=O)N([H])C([H])([H])[H])C([H])([H])C([H])([H])C(=O)OC([H])([H])C([H])([H])N([H])C(=O)C([H])([H])C1([H])[H]


 39 40  0  0  0  0  0  0  0  0999 V2000
    2.6453  -51.8046  -23.8374 C   0  0  0  0  0  0  0  0  0  0  0  0
    1.9161  -52.1248  -22.5743 C   0  0  0  0  0  0  0  0  0  0  0  0
    0.6386  -52.8786  -22.6970 C   0  0  0  0  0  0  0  0  0  0  0  0
   -0.3855  -52.3142  -21.7432 C   0  0  0  0  0  0  0  0  0  0  0  0
   -1.2111  -51.4741  -22.2403 O   0  0  0  0  0  0  0  0  0  0  0  0
   -0.4667  -52.6478  -20.4225 O   0  0  0  0  0  0  0  0  0  0  0  0
    0.5184  -52.6580  -19.4499 C   0  0  0  0  0  0  0  0  0  0  0  0
    0.6089  -51.3672  -18.6356 C   0  0  0  0  0  0  0  0  0  0  0  0
    1.8956  -51.3285  -17.9972 N   0  0  0  0  0  0  0  0  0  0  0  0
    2.6221  -50.1767  -17.6215 C   0  0  0  0  0  0  0  0  0  0  0  0
    3.1599  -50.0984  -16.4629 O   0  0  0  0  0  0  0  0  0  0  0  0
    2.8281  -48.9841  -18.4994 C   0  0  0  0  0  0  0  0  0  0  0  0
    3.0746  -49.3720  -19.9207 C   0  0  0  0  0  0  0  0  0  0  0  0
    4.5251  -49.6008  -20.2894 C   0  0  0  0  0  0  0  0  0  0  0  0
    4.5837  -49.9081  -21.6889 N   0  0  0  0  0  0  0  0  0  0  0  0
    4.1775  -48.9715  -22.6415 C   0  0  0  0  0  0  0  0  0  0  0  0
    2.9363  -49.2788  -23.4053 C   0  0  0  0  0  0  0  0  0  0  0  0
    2.0333  -48.3717  -23.3401 O   0  0  0  0  0  0  0  0  0  0  0  0
    2.6205  -50.3878  -24.1695 N   0  0  0  0  0  0  0  0  0  0  0  0
    2.3569  -52.2593  -17.7774 H   0  0  0  0  0  0  0  0  0  0  0  0
    5.3701  -50.5264  -21.8739 H   0  0  0  0  0  0  0  0  0  0  0  0
    2.2998  -50.2068  -25.1796 H   0  0  0  0  0  0  0  0  0  0  0  0
    0.5076  -53.2868  -26.6581 C   0  0  0  0  0  0  0  0  0  0  0  0
    0.9601  -52.4637  -25.5655 N   0  0  0  0  0  0  0  0  0  0  0  0
    2.2057  -52.6598  -24.9526 C   0  0  0  0  0  0  0  0  0  0  0  0
    2.9469  -53.5695  -25.3586 O   0  0  0  0  0  0  0  0  0  0  0  0
    0.3408  -51.7005  -25.2216 H   0  0  0  0  0  0  0  0  0  0  0  0
    5.4104  -48.5394  -19.8156 C   0  0  0  0  0  0  0  0  0  0  0  0
    5.6005  -47.4239  -20.3520 O   0  0  0  0  0  0  0  0  0  0  0  0
    6.1276  -48.7991  -18.6332 O   0  0  0  0  0  0  0  0  0  0  0  0
    7.0730  -49.1313  -18.7689 H   0  0  0  0  0  0  0  0  0  0  0  0
    5.2886  -48.5717  -23.6193 C   0  0  0  0  0  0  0  0  0  0  0  0
    5.1344  -47.1631  -24.0816 C   0  0  0  0  0  0  0  0  0  0  0  0
    5.2719  -47.0493  -25.5684 C   0  0  0  0  0  0  0  0  0  0  0  0
    5.8088  -45.9591  -26.1816 C   0  0  0  0  0  0  0  0  0  0  0  0
    5.8851  -45.9731  -27.5692 C   0  0  0  0  0  0  0  0  0  0  0  0
    5.4381  -47.0441  -28.3187 C   0  0  0  0  0  0  0  0  0  0  0  0
    4.8978  -48.1391  -27.6857 C   0  0  0  0  0  0  0  0  0  0  0  0
    4.8254  -48.1185  -26.3121 C   0  0  0  0  0  0  0  0  0  0  0  0
 23 24  1  0  0  0
 24 25  1  0  0  0
 25 26  2  0  0  0
 25  1  1  0  0  0
  1  2  1  0  0  0
  2  3  1  0  0  0
  3  4  1  0  0  0
  4  5  2  0  0  0
  4  6  1  0  0  0
  6  7  1  0  0  0
  7  8  1  0  0  0
  8  9  1  0  0  0
  9 10  1  0  0  0
 10 11  2  0  0  0
 10 12  1  0  0  0
 12 13  1  0  0  0
 13 14  1  0  0  0
 14 28  1  0  0  0
 28 29  2  0  0  0
 28 30  1  0  0  0
 14 15  1  0  0  0
 15 16  1  0  0  0
 16 32  1  0  0  0
 32 33  1  0  0  0
 33 34  1  0  0  0
 34 35  2  0  0  0
 35 36  1  0  0  0
 36 37  2  0  0  0
 37 38  1  0  0  0
 38 39  2  0  0  0
 16 17  1  0  0  0
 17 18  2  0  0  0
 17 19  1  0  0  0
 19  1  1  0  0  0
 39 34  1  0  0  0
 24 27  1  0  0  0
  9 20  1  0  0  0
 30 31  1  0  0  0
 15 21  1  0  0  0
 19 22  1  0  0  0
M  END
> <minimizedAffinity>
-5.46989

> <CNNscore>
0.2665131688

> <CNNaffinity>
5.4947528839

> <CNN_VS>
1.4644240141

> <CNNaffinity_variance>
0.7121486068

$$$$
[H]OC(=O)[C@]1([H])N([H])[C@@]([H])(C([H])([H])C([H])([H])c2c([H])c([H])c([H])c([H])c2[H])C(=O)N([H])[C@]([H])(C(=O)N([H])C([H])([H])[H])C([H])([H])C([H])([H])C(=O)OC([H])([H])C([H])([H])N([H])C(=O)C([H])([H])C1([H])[H]


 39 40  0  0  0  0  0  0  0  0999 V2000
    0.5280  -51.6664  -22.1745 C   0  0  0  0  0  0  0  0  0  0  0  0
    1.4671  -50.6164  -22.6697 C   0  0  0  0  0  0  0  0  0  0  0  0
    1.9676  -50.7525  -24.0648 C   0  0  0  0  0  0  0  0  0  0  0  0
    3.4349  -50.4051  -24.1211 C   0  0  0  0  0  0  0  0  0  0  0  0
    4.2464  -51.3921  -24.0795 O   0  0  0  0  0  0  0  0  0  0  0  0
    3.9168  -49.1315  -24.2111 O   0  0  0  0  0  0  0  0  0  0  0  0
    3.6234  -48.0179  -23.4429 C   0  0  0  0  0  0  0  0  0  0  0  0
    4.5786  -47.7959  -22.2699 C   0  0  0  0  0  0  0  0  0  0  0  0
    3.9386  -46.9175  -21.3299 N   0  0  0  0  0  0  0  0  0  0  0  0
    4.1590  -46.8610  -19.9357 C   0  0  0  0  0  0  0  0  0  0  0  0
    4.3228  -45.7349  -19.3501 O   0  0  0  0  0  0  0  0  0  0  0  0
    4.2209  -48.0572  -19.0410 C   0  0  0  0  0  0  0  0  0  0  0  0
    3.2054  -49.0873  -19.4136 C   0  0  0  0  0  0  0  0  0  0  0  0
    1.8576  -48.9447  -18.7389 C   0  0  0  0  0  0  0  0  0  0  0  0
    1.0309  -50.0365  -19.1643 N   0  0  0  0  0  0  0  0  0  0  0  0
    1.3792  -51.3541  -18.8605 C   0  0  0  0  0  0  0  0  0  0  0  0
    1.7928  -52.2234  -19.9970 C   0  0  0  0  0  0  0  0  0  0  0  0
    2.9473  -52.7630  -19.8613 O   0  0  0  0  0  0  0  0  0  0  0  0
    1.1182  -52.5323  -21.1646 N   0  0  0  0  0  0  0  0  0  0  0  0
    3.2245  -46.2321  -21.7143 H   0  0  0  0  0  0  0  0  0  0  0  0
    0.0554  -49.7480  -19.1727 H   0  0  0  0  0  0  0  0  0  0  0  0
    0.9933  -53.5756  -21.3923 H   0  0  0  0  0  0  0  0  0  0  0  0
   -1.0311  -52.4927  -25.5817 C   0  0  0  0  0  0  0  0  0  0  0  0
   -0.4317  -51.7798  -24.4825 N   0  0  0  0  0  0  0  0  0  0  0  0
   -0.0838  -52.4176  -23.2833 C   0  0  0  0  0  0  0  0  0  0  0  0
   -0.2966  -53.6344  -23.1577 O   0  0  0  0  0  0  0  0  0  0  0  0
   -0.2527  -50.7590  -24.5838 H   0  0  0  0  0  0  0  0  0  0  0  0
    1.9593  -48.7246  -17.2980 C   0  0  0  0  0  0  0  0  0  0  0  0
    1.1534  -48.0951  -16.5751 O   0  0  0  0  0  0  0  0  0  0  0  0
    3.0830  -49.2756  -16.6550 O   0  0  0  0  0  0  0  0  0  0  0  0
    3.8540  -48.6363  -16.5155 H   0  0  0  0  0  0  0  0  0  0  0  0
    0.3276  -52.0865  -18.0189 C   0  0  0  0  0  0  0  0  0  0  0  0
   -0.6224  -51.1352  -17.3753 C   0  0  0  0  0  0  0  0  0  0  0  0
   -0.7507  -51.3893  -15.9052 C   0  0  0  0  0  0  0  0  0  0  0  0
   -1.9487  -51.4134  -15.2592 C   0  0  0  0  0  0  0  0  0  0  0  0
   -1.9382  -51.6627  -13.8921 C   0  0  0  0  0  0  0  0  0  0  0  0
   -0.7660  -51.8806  -13.1941 C   0  0  0  0  0  0  0  0  0  0  0  0
    0.4372  -51.8532  -13.8597 C   0  0  0  0  0  0  0  0  0  0  0  0
    0.4194  -51.6060  -15.2128 C   0  0  0  0  0  0  0  0  0  0  0  0
 23 24  1  0  0  0
 24 25  1  0  0  0
 25 26  2  0  0  0
 25  1  1  0  0  0
  1  2  1  0  0  0
  2  3  1  0  0  0
  3  4  1  0  0  0
  4  5  2  0  0  0
  4  6  1  0  0  0
  6  7  1  0  0  0
  7  8  1  0  0  0
  8  9  1  0  0  0
  9 10  1  0  0  0
 10 11  2  0  0  0
 10 12  1  0  0  0
 12 13  1  0  0  0
 13 14  1  0  0  0
 14 28  1  0  0  0
 28 29  2  0  0  0
 28 30  1  0  0  0
 14 15  1  0  0  0
 15 16  1  0  0  0
 16 32  1  0  0  0
 32 33  1  0  0  0
 33 34  1  0  0  0
 34 35  2  0  0  0
 35 36  1  0  0  0
 36 37  2  0  0  0
 37 38  1  0  0  0
 38 39  2  0  0  0
 16 17  1  0  0  0
 17 18  2  0  0  0
 17 19  1  0  0  0
 19  1  1  0  0  0
 39 34  1  0  0  0
 24 27  1  0  0  0
  9 20  1  0  0  0
 30 31  1  0  0  0
 15 21  1  0  0  0
 19 22  1  0  0  0
M  END
> <minimizedAffinity>
-5.92671

> <CNNscore>
0.2597764730

> <CNNaffinity>
5.3490653038

> <CNN_VS>
1.3895612955

> <CNNaffinity_variance>
0.3041335940

$$$$
[H]c1nc2n(n1)C([H])(c1sc([H])c([H])c1[H])C([H])([H])C([H])(c1c([H])c([H])c(Cl)c(Cl)c1[H])N2[H]


 23 26  0  0  0  0  0  0  0  0999 V2000
    0.9128  -52.6776  -24.2469 C   0  0  0  0  0  0  0  0  0  0  0  0
    0.9750  -51.2988  -23.6874 C   0  0  0  0  0  0  0  0  0  0  0  0
    1.3908  -51.2855  -22.2623 C   0  0  0  0  0  0  0  0  0  0  0  0
    0.8816  -52.3646  -21.4767 N   0  0  0  0  0  0  0  0  0  0  0  0
    0.9438  -52.5815  -20.1791 N   0  0  0  0  0  0  0  0  0  0  0  0
    0.3275  -53.7258  -19.8572 C   0  0  0  0  0  0  0  0  0  0  0  0
   -0.1275  -54.2203  -21.0215 N   0  0  0  0  0  0  0  0  0  0  0  0
    0.1972  -53.4062  -22.0366 C   0  0  0  0  0  0  0  0  0  0  0  0
   -0.0229  -53.4370  -23.4410 N   0  0  0  0  0  0  0  0  0  0  0  0
   -0.8218  -53.9892  -23.7928 H   0  0  0  0  0  0  0  0  0  0  0  0
   -0.5680  -52.8376  -30.0547 Cl  0  0  0  0  0  0  0  0  0  0  0  0
   -0.1186  -52.7935  -28.3666 C   0  0  0  0  0  0  0  0  0  0  0  0
    1.2003  -52.9472  -28.0081 C   0  0  0  0  0  0  0  0  0  0  0  0
    1.5311  -52.9074  -26.6476 C   0  0  0  0  0  0  0  0  0  0  0  0
    0.5829  -52.7214  -25.6797 C   0  0  0  0  0  0  0  0  0  0  0  0
   -0.7310  -52.5698  -26.0627 C   0  0  0  0  0  0  0  0  0  0  0  0
   -1.0975  -52.6043  -27.4149 C   0  0  0  0  0  0  0  0  0  0  0  0
   -2.7635  -52.4132  -27.9167 Cl  0  0  0  0  0  0  0  0  0  0  0  0
    2.8918  -51.2395  -22.1015 C   0  0  0  0  0  0  0  0  0  0  0  0
    3.8315  -51.8327  -22.8953 C   0  0  0  0  0  0  0  0  0  0  0  0
    5.1175  -51.6633  -22.5674 C   0  0  0  0  0  0  0  0  0  0  0  0
    5.3871  -50.9050  -21.4572 C   0  0  0  0  0  0  0  0  0  0  0  0
    3.8348  -50.4577  -20.9137 S   0  0  0  0  0  0  0  0  0  0  0  0
 11 12  1  0  0  0
 12 13  2  0  0  0
 13 14  1  0  0  0
 14 15  2  0  0  0
 15  1  1  0  0  0
  1  2  1  0  0  0
  2  3  1  0  0  0
  3 19  1  0  0  0
 19 20  2  0  0  0
 20 21  1  0  0  0
 21 22  2  0  0  0
 22 23  1  0  0  0
  3  4  1  0  0  0
  4  5  1  0  0  0
  5  6  2  0  0  0
  6  7  1  0  0  0
  7  8  2  0  0  0
  8  9  1  0  0  0
 15 16  1  0  0  0
 16 17  2  0  0  0
 17 18  1  0  0  0
 17 12  1  0  0  0
  9  1  1  0  0  0
 23 19  1  0  0  0
  8  4  1  0  0  0
  9 10  1  0  0  0
M  END
> <minimizedAffinity>
-7.84857

> <CNNscore>
0.7876736522

> <CNNaffinity>
6.7405152321

> <CNN_VS>
5.3093261719

> <CNNaffinity_variance>
0.3940393031

$$$$
[H]c1nc2n(n1)C([H])(c1sc([H])c([H])c1[H])C([H])([H])C([H])(c1c([H])c([H])c(Cl)c(Cl)c1[H])N2[H]


 23 26  0  0  0  0  0  0  0  0999 V2000
    0.7185  -52.6144  -23.9643 C   0  0  0  0  0  0  0  0  0  0  0  0
    0.9055  -51.2165  -23.4859 C   0  0  0  0  0  0  0  0  0  0  0  0
    1.4178  -51.1594  -22.0937 C   0  0  0  0  0  0  0  0  0  0  0  0
    0.8966  -52.1615  -21.2191 N   0  0  0  0  0  0  0  0  0  0  0  0
    1.0336  -52.3167  -19.9183 N   0  0  0  0  0  0  0  0  0  0  0  0
    0.3700  -53.4000  -19.4952 C   0  0  0  0  0  0  0  0  0  0  0  0
   -0.1938  -53.9209  -20.5989 N   0  0  0  0  0  0  0  0  0  0  0  0
    0.1113  -53.1821  -21.6758 C   0  0  0  0  0  0  0  0  0  0  0  0
   -0.2057  -53.2686  -23.0592 N   0  0  0  0  0  0  0  0  0  0  0  0
   -1.0601  -53.7835  -23.3276 H   0  0  0  0  0  0  0  0  0  0  0  0
   -0.9061  -53.0551  -29.7188 Cl  0  0  0  0  0  0  0  0  0  0  0  0
   -0.4491  -52.9188  -28.0377 C   0  0  0  0  0  0  0  0  0  0  0  0
   -1.3233  -52.3568  -27.1370 C   0  0  0  0  0  0  0  0  0  0  0  0
   -0.9301  -52.2607  -25.7961 C   0  0  0  0  0  0  0  0  0  0  0  0
    0.2894  -52.7080  -25.3681 C   0  0  0  0  0  0  0  0  0  0  0  0
    1.1480  -53.2671  -26.2881 C   0  0  0  0  0  0  0  0  0  0  0  0
    0.7870  -53.3791  -27.6376 C   0  0  0  0  0  0  0  0  0  0  0  0
    1.8678  -54.0872  -28.8183 Cl  0  0  0  0  0  0  0  0  0  0  0  0
    2.9262  -51.2051  -22.0336 C   0  0  0  0  0  0  0  0  0  0  0  0
    3.7728  -51.8554  -22.8853 C   0  0  0  0  0  0  0  0  0  0  0  0
    5.0857  -51.7647  -22.6447 C   0  0  0  0  0  0  0  0  0  0  0  0
    5.4747  -51.0235  -21.5586 C   0  0  0  0  0  0  0  0  0  0  0  0
    3.9924  -50.4816  -20.9150 S   0  0  0  0  0  0  0  0  0  0  0  0
 11 12  1  0  0  0
 12 13  2  0  0  0
 13 14  1  0  0  0
 14 15  2  0  0  0
 15  1  1  0  0  0
  1  2  1  0  0  0
  2  3  1  0  0  0
  3 19  1  0  0  0
 19 20  2  0  0  0
 20 21  1  0  0  0
 21 22  2  0  0  0
 22 23  1  0  0  0
  3  4  1  0  0  0
  4  5  1  0  0  0
  5  6  2  0  0  0
  6  7  1  0  0  0
  7  8  2  0  0  0
  8  9  1  0  0  0
 15 16  1  0  0  0
 16 17  2  0  0  0
 17 18  1  0  0  0
 17 12  1  0  0  0
  9  1  1  0  0  0
 23 19  1  0  0  0
  8  4  1  0  0  0
  9 10  1  0  0  0
M  END
> <minimizedAffinity>
-7.50368

> <CNNscore>
0.5913265347

> <CNNaffinity>
6.5882902145

> <CNN_VS>
3.8958308697

> <CNNaffinity_variance>
0.4859928489

$$$$
[H]c1nc2n(n1)C([H])(c1sc([H])c([H])c1[H])C([H])([H])C([H])(c1c([H])c([H])c(Cl)c(Cl)c1[H])N2[H]


 23 26  0  0  0  0  0  0  0  0999 V2000
    1.1036  -51.5293  -24.1209 C   0  0  0  0  0  0  0  0  0  0  0  0
    1.8109  -52.4486  -25.0550 C   0  0  0  0  0  0  0  0  0  0  0  0
    0.9413  -53.5564  -25.5244 C   0  0  0  0  0  0  0  0  0  0  0  0
    0.0411  -54.0723  -24.5424 N   0  0  0  0  0  0  0  0  0  0  0  0
   -0.7593  -55.1177  -24.5810 N   0  0  0  0  0  0  0  0  0  0  0  0
   -1.4348  -55.2433  -23.4318 C   0  0  0  0  0  0  0  0  0  0  0  0
   -1.0182  -54.2207  -22.6649 N   0  0  0  0  0  0  0  0  0  0  0  0
   -0.1103  -53.4820  -23.3195 C   0  0  0  0  0  0  0  0  0  0  0  0
    0.6391  -52.3176  -22.9964 N   0  0  0  0  0  0  0  0  0  0  0  0
    0.8026  -52.1101  -21.9978 H   0  0  0  0  0  0  0  0  0  0  0  0
    4.3269  -46.8191  -22.2845 Cl  0  0  0  0  0  0  0  0  0  0  0  0
    3.3969  -48.1920  -22.8358 C   0  0  0  0  0  0  0  0  0  0  0  0
    3.6373  -48.7221  -24.0819 C   0  0  0  0  0  0  0  0  0  0  0  0
    2.8765  -49.8225  -24.4972 C   0  0  0  0  0  0  0  0  0  0  0  0
    1.9117  -50.3745  -23.7005 C   0  0  0  0  0  0  0  0  0  0  0  0
    1.6889  -49.8268  -22.4569 C   0  0  0  0  0  0  0  0  0  0  0  0
    2.4315  -48.7258  -22.0093 C   0  0  0  0  0  0  0  0  0  0  0  0
    2.1595  -48.0189  -20.4313 Cl  0  0  0  0  0  0  0  0  0  0  0  0
    0.1492  -53.1839  -26.7551 C   0  0  0  0  0  0  0  0  0  0  0  0
   -1.0976  -52.6289  -26.8049 C   0  0  0  0  0  0  0  0  0  0  0  0
   -1.6183  -52.3794  -28.0117 C   0  0  0  0  0  0  0  0  0  0  0  0
   -0.8542  -52.7026  -29.1035 C   0  0  0  0  0  0  0  0  0  0  0  0
    0.5618  -53.3425  -28.4031 S   0  0  0  0  0  0  0  0  0  0  0  0
 11 12  1  0  0  0
 12 13  2  0  0  0
 13 14  1  0  0  0
 14 15  2  0  0  0
 15  1  1  0  0  0
  1  2  1  0  0  0
  2  3  1  0  0  0
  3 19  1  0  0  0
 19 20  2  0  0  0
 20 21  1  0  0  0
 21 22  2  0  0  0
 22 23  1  0  0  0
  3  4  1  0  0  0
  4  5  1  0  0  0
  5  6  2  0  0  0
  6  7  1  0  0  0
  7  8  2  0  0  0
  8  9  1  0  0  0
 15 16  1  0  0  0
 16 17  2  0  0  0
 17 18  1  0  0  0
 17 12  1  0  0  0
  9  1  1  0  0  0
 23 19  1  0  0  0
  8  4  1  0  0  0
  9 10  1  0  0  0
M  END
> <minimizedAffinity>
-7.31296

> <CNNscore>
0.5814757943

> <CNNaffinity>
6.6874284744

> <CNN_VS>
3.8885776997

> <CNNaffinity_variance>
0.3932492435

$$$$
[H]c1nc2n(n1)C([H])(c1sc([H])c([H])c1[H])C([H])([H])C([H])(c1c([H])c([H])c(Cl)c(Cl)c1[H])N2[H]


 23 26  0  0  0  0  0  0  0  0999 V2000
    0.8534  -51.5541  -24.1209 C   0  0  0  0  0  0  0  0  0  0  0  0
    1.5868  -52.6197  -23.3830 C   0  0  0  0  0  0  0  0  0  0  0  0
    1.8426  -52.2532  -21.9673 C   0  0  0  0  0  0  0  0  0  0  0  0
    2.1515  -50.8757  -21.7487 N   0  0  0  0  0  0  0  0  0  0  0  0
    2.5512  -50.2511  -20.6601 N   0  0  0  0  0  0  0  0  0  0  0  0
    2.7296  -48.9456  -20.8981 C   0  0  0  0  0  0  0  0  0  0  0  0
    2.4210  -48.7789  -22.1959 N   0  0  0  0  0  0  0  0  0  0  0  0
    2.0615  -49.9474  -22.7472 C   0  0  0  0  0  0  0  0  0  0  0  0
    1.6474  -50.3434  -24.0485 N   0  0  0  0  0  0  0  0  0  0  0  0
    1.9333  -49.7535  -24.8468 H   0  0  0  0  0  0  0  0  0  0  0  0
   -0.6755  -53.0262  -29.7284 Cl  0  0  0  0  0  0  0  0  0  0  0  0
   -0.2119  -52.5992  -28.0986 C   0  0  0  0  0  0  0  0  0  0  0  0
    1.1190  -52.5738  -27.7530 C   0  0  0  0  0  0  0  0  0  0  0  0
    1.4610  -52.2279  -26.4394 C   0  0  0  0  0  0  0  0  0  0  0  0
    0.5120  -51.9188  -25.5044 C   0  0  0  0  0  0  0  0  0  0  0  0
   -0.8142  -51.9510  -25.8737 C   0  0  0  0  0  0  0  0  0  0  0  0
   -1.1921  -52.2927  -27.1792 C   0  0  0  0  0  0  0  0  0  0  0  0
   -2.8737  -52.3380  -27.6630 Cl  0  0  0  0  0  0  0  0  0  0  0  0
    0.7009  -52.6407  -21.0577 C   0  0  0  0  0  0  0  0  0  0  0  0
    0.6056  -52.4378  -19.7105 C   0  0  0  0  0  0  0  0  0  0  0  0
   -0.5027  -52.8656  -19.0953 C   0  0  0  0  0  0  0  0  0  0  0  0
   -1.4553  -53.4749  -19.8709 C   0  0  0  0  0  0  0  0  0  0  0  0
   -0.7670  -53.4271  -21.4294 S   0  0  0  0  0  0  0  0  0  0  0  0
 11 12  1  0  0  0
 12 13  2  0  0  0
 13 14  1  0  0  0
 14 15  2  0  0  0
 15  1  1  0  0  0
  1  2  1  0  0  0
  2  3  1  0  0  0
  3 19  1  0  0  0
 19 20  2  0  0  0
 20 21  1  0  0  0
 21 22  2  0  0  0
 22 23  1  0  0  0
  3  4  1  0  0  0
  4  5  1  0  0  0
  5  6  2  0  0  0
  6  7  1  0  0  0
  7  8  2  0  0  0
  8  9  1  0  0  0
 15 16  1  0  0  0
 16 17  2  0  0  0
 17 18  1  0  0  0
 17 12  1  0  0  0
  9  1  1  0  0  0
 23 19  1  0  0  0
  8  4  1  0  0  0
  9 10  1  0  0  0
M  END
> <minimizedAffinity>
-7.33680

> <CNNscore>
0.5650946498

> <CNNaffinity>
6.6896667480

> <CNN_VS>
3.7802948952

> <CNNaffinity_variance>
0.3116626143

$$$$
[H]c1nc2n(n1)C([H])(c1sc([H])c([H])c1[H])C([H])([H])C([H])(c1c([H])c([H])c(Cl)c(Cl)c1[H])N2[H]


 23 26  0  0  0  0  0  0  0  0999 V2000
    0.6447  -52.0392  -23.0746 C   0  0  0  0  0  0  0  0  0  0  0  0
    0.6830  -50.6144  -22.6429 C   0  0  0  0  0  0  0  0  0  0  0  0
    0.9480  -50.4712  -21.1892 C   0  0  0  0  0  0  0  0  0  0  0  0
    0.3327  -51.4624  -20.3648 N   0  0  0  0  0  0  0  0  0  0  0  0
    0.2536  -51.5552  -19.0533 N   0  0  0  0  0  0  0  0  0  0  0  0
   -0.4216  -52.6539  -18.6932 C   0  0  0  0  0  0  0  0  0  0  0  0
   -0.7649  -53.2505  -19.8480 N   0  0  0  0  0  0  0  0  0  0  0  0
   -0.3157  -52.5422  -20.8944 C   0  0  0  0  0  0  0  0  0  0  0  0
   -0.3887  -52.7038  -22.3052 N   0  0  0  0  0  0  0  0  0  0  0  0
   -1.1603  -53.2749  -22.6867 H   0  0  0  0  0  0  0  0  0  0  0  0
   -0.2263  -52.7361  -28.9656 Cl  0  0  0  0  0  0  0  0  0  0  0  0
    0.0459  -52.5356  -27.2511 C   0  0  0  0  0  0  0  0  0  0  0  0
    1.3220  -52.6323  -26.7476 C   0  0  0  0  0  0  0  0  0  0  0  0
    1.5101  -52.4670  -25.3694 C   0  0  0  0  0  0  0  0  0  0  0  0
    0.4652  -52.2148  -24.5239 C   0  0  0  0  0  0  0  0  0  0  0  0
   -0.8035  -52.1222  -25.0510 C   0  0  0  0  0  0  0  0  0  0  0  0
   -1.0280  -52.2821  -26.4250 C   0  0  0  0  0  0  0  0  0  0  0  0
   -2.6350  -52.1673  -27.1093 Cl  0  0  0  0  0  0  0  0  0  0  0  0
    2.4248  -50.4329  -20.8749 C   0  0  0  0  0  0  0  0  0  0  0  0
    3.4022  -51.2461  -21.3732 C   0  0  0  0  0  0  0  0  0  0  0  0
    4.6560  -51.0374  -20.9556 C   0  0  0  0  0  0  0  0  0  0  0  0
    4.8571  -50.0203  -20.0581 C   0  0  0  0  0  0  0  0  0  0  0  0
    3.2880  -49.3944  -19.8320 S   0  0  0  0  0  0  0  0  0  0  0  0
 11 12  1  0  0  0
 12 13  2  0  0  0
 13 14  1  0  0  0
 14 15  2  0  0  0
 15  1  1  0  0  0
  1  2  1  0  0  0
  2  3  1  0  0  0
  3 19  1  0  0  0
 19 20  2  0  0  0
 20 21  1  0  0  0
 21 22  2  0  0  0
 22 23  1  0  0  0
  3  4  1  0  0  0
  4  5  1  0  0  0
  5  6  2  0  0  0
  6  7  1  0  0  0
  7  8  2  0  0  0
  8  9  1  0  0  0
 15 16  1  0  0  0
 16 17  2  0  0  0
 17 18  1  0  0  0
 17 12  1  0  0  0
  9  1  1  0  0  0
 23 19  1  0  0  0
  8  4  1  0  0  0
  9 10  1  0  0  0
M  END
> <minimizedAffinity>
-6.99565

> <CNNscore>
0.5574263930

> <CNNaffinity>
6.5757689476

> <CNN_VS>
3.6655070782

> <CNNaffinity_variance>
0.7399022579

$$$$
[H]c1nc2n(n1)C([H])(c1sc([H])c([H])c1[H])C([H])([H])C([H])(c1c([H])c([H])c(Cl)c(Cl)c1[H])N2[H]


 23 26  0  0  0  0  0  0  0  0999 V2000
   -0.1534  -52.0314  -18.9215 C   0  0  0  0  0  0  0  0  0  0  0  0
    1.2108  -52.4953  -19.2979 C   0  0  0  0  0  0  0  0  0  0  0  0
    1.2874  -52.9356  -20.7136 C   0  0  0  0  0  0  0  0  0  0  0  0
    0.1300  -53.6214  -21.1940 N   0  0  0  0  0  0  0  0  0  0  0  0
   -0.0816  -54.2480  -22.3331 N   0  0  0  0  0  0  0  0  0  0  0  0
   -1.3188  -54.7583  -22.3736 C   0  0  0  0  0  0  0  0  0  0  0  0
   -1.8778  -54.4202  -21.1986 N   0  0  0  0  0  0  0  0  0  0  0  0
   -1.0122  -53.7203  -20.4506 C   0  0  0  0  0  0  0  0  0  0  0  0
   -1.0716  -53.1277  -19.1595 N   0  0  0  0  0  0  0  0  0  0  0  0
   -1.7536  -53.5089  -18.4839 H   0  0  0  0  0  0  0  0  0  0  0  0
   -0.4386  -49.8069  -13.3610 Cl  0  0  0  0  0  0  0  0  0  0  0  0
   -0.3669  -50.4690  -14.9766 C   0  0  0  0  0  0  0  0  0  0  0  0
   -1.0670  -51.6145  -15.2755 C   0  0  0  0  0  0  0  0  0  0  0  0
   -0.9910  -52.1223  -16.5787 C   0  0  0  0  0  0  0  0  0  0  0  0
   -0.2448  -51.5115  -17.5486 C   0  0  0  0  0  0  0  0  0  0  0  0
    0.4476  -50.3658  -17.2258 C   0  0  0  0  0  0  0  0  0  0  0  0
    0.3940  -49.8301  -15.9320 C   0  0  0  0  0  0  0  0  0  0  0  0
    1.2687  -48.3747  -15.5070 Cl  0  0  0  0  0  0  0  0  0  0  0  0
    1.5965  -51.7954  -21.6546 C   0  0  0  0  0  0  0  0  0  0  0  0
    1.2623  -50.4797  -21.5046 C   0  0  0  0  0  0  0  0  0  0  0  0
    1.6370  -49.6304  -22.4679 C   0  0  0  0  0  0  0  0  0  0  0  0
    2.3285  -50.1527  -23.5306 C   0  0  0  0  0  0  0  0  0  0  0  0
    2.4288  -51.8097  -23.1440 S   0  0  0  0  0  0  0  0  0  0  0  0
 11 12  1  0  0  0
 12 13  2  0  0  0
 13 14  1  0  0  0
 14 15  2  0  0  0
 15  1  1  0  0  0
  1  2  1  0  0  0
  2  3  1  0  0  0
  3 19  1  0  0  0
 19 20  2  0  0  0
 20 21  1  0  0  0
 21 22  2  0  0  0
 22 23  1  0  0  0
  3  4  1  0  0  0
  4  5  1  0  0  0
  5  6  2  0  0  0
  6  7  1  0  0  0
  7  8  2  0  0  0
  8  9  1  0  0  0
 15 16  1  0  0  0
 16 17  2  0  0  0
 17 18  1  0  0  0
 17 12  1  0  0  0
  9  1  1  0  0  0
 23 19  1  0  0  0
  8  4  1  0  0  0
  9 10  1  0  0  0
M  END
> <minimizedAffinity>
-6.34100

> <CNNscore>
0.5526194572

> <CNNaffinity>
6.0018463135

> <CNN_VS>
3.3167369366

> <CNNaffinity_variance>
0.3020085692

$$$$
[H]c1nc2n(n1)C([H])(c1sc([H])c([H])c1[H])C([H])([H])C([H])(c1c([H])c([H])c(Cl)c(Cl)c1[H])N2[H]


 23 26  0  0  0  0  0  0  0  0999 V2000
    1.1235  -51.5742  -24.2838 C   0  0  0  0  0  0  0  0  0  0  0  0
    1.6644  -52.5353  -25.2846 C   0  0  0  0  0  0  0  0  0  0  0  0
    0.6976  -53.6129  -25.6132 C   0  0  0  0  0  0  0  0  0  0  0  0
   -0.0840  -54.0768  -24.5111 N   0  0  0  0  0  0  0  0  0  0  0  0
   -0.9226  -55.0887  -24.4231 N   0  0  0  0  0  0  0  0  0  0  0  0
   -1.4443  -55.1696  -23.1926 C   0  0  0  0  0  0  0  0  0  0  0  0
   -0.8901  -54.1542  -22.5078 N   0  0  0  0  0  0  0  0  0  0  0  0
   -0.0487  -53.4632  -23.2908 C   0  0  0  0  0  0  0  0  0  0  0  0
    0.7818  -52.3262  -23.0924 N   0  0  0  0  0  0  0  0  0  0  0  0
    1.0842  -52.1113  -22.1284 H   0  0  0  0  0  0  0  0  0  0  0  0
    4.8397  -46.9846  -23.2475 Cl  0  0  0  0  0  0  0  0  0  0  0  0
    3.7513  -48.3218  -23.5317 C   0  0  0  0  0  0  0  0  0  0  0  0
    2.9932  -48.8156  -22.4959 C   0  0  0  0  0  0  0  0  0  0  0  0
    2.1294  -49.8879  -22.7530 C   0  0  0  0  0  0  0  0  0  0  0  0
    2.0247  -50.4478  -23.9964 C   0  0  0  0  0  0  0  0  0  0  0  0
    2.7937  -49.9365  -25.0179 C   0  0  0  0  0  0  0  0  0  0  0  0
    3.6684  -48.8643  -24.7961 C   0  0  0  0  0  0  0  0  0  0  0  0
    4.6521  -48.2040  -26.0846 Cl  0  0  0  0  0  0  0  0  0  0  0  0
   -0.2355  -53.2257  -26.7359 C   0  0  0  0  0  0  0  0  0  0  0  0
   -0.0720  -53.4605  -28.0712 C   0  0  0  0  0  0  0  0  0  0  0  0
   -1.0286  -53.0263  -28.8995 C   0  0  0  0  0  0  0  0  0  0  0  0
   -2.0987  -52.3788  -28.3374 C   0  0  0  0  0  0  0  0  0  0  0  0
   -1.7280  -52.4011  -26.6739 S   0  0  0  0  0  0  0  0  0  0  0  0
 11 12  1  0  0  0
 12 13  2  0  0  0
 13 14  1  0  0  0
 14 15  2  0  0  0
 15  1  1  0  0  0
  1  2  1  0  0  0
  2  3  1  0  0  0
  3 19  1  0  0  0
 19 20  2  0  0  0
 20 21  1  0  0  0
 21 22  2  0  0  0
 22 23  1  0  0  0
  3  4  1  0  0  0
  4  5  1  0  0  0
  5  6  2  0  0  0
  6  7  1  0  0  0
  7  8  2  0  0  0
  8  9  1  0  0  0
 15 16  1  0  0  0
 16 17  2  0  0  0
 17 18  1  0  0  0
 17 12  1  0  0  0
  9  1  1  0  0  0
 23 19  1  0  0  0
  8  4  1  0  0  0
  9 10  1  0  0  0
M  END
> <minimizedAffinity>
-7.04623

> <CNNscore>
0.4068127275

> <CNNaffinity>
6.3984422684

> <CNN_VS>
2.6029677391

> <CNNaffinity_variance>
0.4630829394

$$$$
[H]c1nc2n(n1)C([H])(c1sc([H])c([H])c1[H])C([H])([H])C([H])(c1c([H])c([H])c(Cl)c(Cl)c1[H])N2[H]


 23 26  0  0  0  0  0  0  0  0999 V2000
    0.8892  -51.7773  -22.3879 C   0  0  0  0  0  0  0  0  0  0  0  0
    2.2802  -52.1892  -22.7243 C   0  0  0  0  0  0  0  0  0  0  0  0
    2.4369  -52.5306  -24.1606 C   0  0  0  0  0  0  0  0  0  0  0  0
    1.3201  -53.2034  -24.7445 N   0  0  0  0  0  0  0  0  0  0  0  0
    1.1793  -53.7549  -25.9323 N   0  0  0  0  0  0  0  0  0  0  0  0
   -0.0429  -54.2840  -26.0702 C   0  0  0  0  0  0  0  0  0  0  0  0
   -0.6669  -54.0371  -24.9053 N   0  0  0  0  0  0  0  0  0  0  0  0
    0.1448  -53.3739  -24.0688 C   0  0  0  0  0  0  0  0  0  0  0  0
    0.0082  -52.8716  -22.7456 N   0  0  0  0  0  0  0  0  0  0  0  0
   -0.6981  -53.3105  -22.1328 H   0  0  0  0  0  0  0  0  0  0  0  0
    0.1192  -50.1698  -16.6633 Cl  0  0  0  0  0  0  0  0  0  0  0  0
    0.3531  -50.6226  -18.3348 C   0  0  0  0  0  0  0  0  0  0  0  0
    1.0451  -49.7845  -19.1776 C   0  0  0  0  0  0  0  0  0  0  0  0
    1.2172  -50.1734  -20.5122 C   0  0  0  0  0  0  0  0  0  0  0  0
    0.7182  -51.3538  -20.9897 C   0  0  0  0  0  0  0  0  0  0  0  0
    0.0289  -52.1766  -20.1272 C   0  0  0  0  0  0  0  0  0  0  0  0
   -0.1619  -51.8189  -18.7857 C   0  0  0  0  0  0  0  0  0  0  0  0
   -1.0360  -52.8545  -17.6778 Cl  0  0  0  0  0  0  0  0  0  0  0  0
    2.7673  -51.3235  -25.0060 C   0  0  0  0  0  0  0  0  0  0  0  0
    2.9681  -50.0410  -24.5816 C   0  0  0  0  0  0  0  0  0  0  0  0
    3.2507  -49.1179  -25.5077 C   0  0  0  0  0  0  0  0  0  0  0  0
    3.3158  -49.5369  -26.8118 C   0  0  0  0  0  0  0  0  0  0  0  0
    2.9799  -51.2038  -26.6947 S   0  0  0  0  0  0  0  0  0  0  0  0
 11 12  1  0  0  0
 12 13  2  0  0  0
 13 14  1  0  0  0
 14 15  2  0  0  0
 15  1  1  0  0  0
  1  2  1  0  0  0
  2  3  1  0  0  0
  3 19  1  0  0  0
 19 20  2  0  0  0
 20 21  1  0  0  0
 21 22  2  0  0  0
 22 23  1  0  0  0
  3  4  1  0  0  0
  4  5  1  0  0  0
  5  6  2  0  0  0
  6  7  1  0  0  0
  7  8  2  0  0  0
  8  9  1  0  0  0
 15 16  1  0  0  0
 16 17  2  0  0  0
 17 18  1  0  0  0
 17 12  1  0  0  0
  9  1  1  0  0  0
 23 19  1  0  0  0
  8  4  1  0  0  0
  9 10  1  0  0  0
M  END
> <minimizedAffinity>
-6.92382

> <CNNscore>
0.2750167847

> <CNNaffinity>
6.2023010254

> <CNN_VS>
1.7057368755

> <CNNaffinity_variance>
0.5662506819

$$$$
[H]c1nc2n(n1)C([H])(c1sc([H])c([H])c1[H])C([H])([H])C([H])(c1c([H])c([H])c(Cl)c(Cl)c1[H])N2[H]


 23 26  0  0  0  0  0  0  0  0999 V2000
    0.7726  -52.2087  -21.8326 C   0  0  0  0  0  0  0  0  0  0  0  0
    0.5871  -50.7330  -21.7574 C   0  0  0  0  0  0  0  0  0  0  0  0
    0.7616  -50.2110  -20.3786 C   0  0  0  0  0  0  0  0  0  0  0  0
    0.2566  -51.0589  -19.3457 N   0  0  0  0  0  0  0  0  0  0  0  0
    0.1311  -50.8487  -18.0515 N   0  0  0  0  0  0  0  0  0  0  0  0
   -0.3963  -51.9189  -17.4438 C   0  0  0  0  0  0  0  0  0  0  0  0
   -0.5973  -52.8168  -18.4239 N   0  0  0  0  0  0  0  0  0  0  0  0
   -0.2059  -52.3180  -19.6057 C   0  0  0  0  0  0  0  0  0  0  0  0
   -0.1899  -52.8188  -20.9364 N   0  0  0  0  0  0  0  0  0  0  0  0
   -0.8536  -53.5728  -21.1768 H   0  0  0  0  0  0  0  0  0  0  0  0
    0.5532  -54.3553  -27.4265 Cl  0  0  0  0  0  0  0  0  0  0  0  0
    0.6001  -53.7365  -25.7930 C   0  0  0  0  0  0  0  0  0  0  0  0
   -0.4780  -53.9272  -24.9607 C   0  0  0  0  0  0  0  0  0  0  0  0
   -0.4123  -53.4202  -23.6565 C   0  0  0  0  0  0  0  0  0  0  0  0
    0.6871  -52.7479  -23.1984 C   0  0  0  0  0  0  0  0  0  0  0  0
    1.7544  -52.5693  -24.0499 C   0  0  0  0  0  0  0  0  0  0  0  0
    1.7226  -53.0633  -25.3610 C   0  0  0  0  0  0  0  0  0  0  0  0
    3.0715  -52.8438  -26.4547 Cl  0  0  0  0  0  0  0  0  0  0  0  0
    2.2017  -49.8787  -20.0674 C   0  0  0  0  0  0  0  0  0  0  0  0
    2.7938  -48.6482  -20.0866 C   0  0  0  0  0  0  0  0  0  0  0  0
    4.0934  -48.5799  -19.7764 C   0  0  0  0  0  0  0  0  0  0  0  0
    4.7263  -49.7554  -19.4636 C   0  0  0  0  0  0  0  0  0  0  0  0
    3.4825  -50.9110  -19.6145 S   0  0  0  0  0  0  0  0  0  0  0  0
 11 12  1  0  0  0
 12 13  2  0  0  0
 13 14  1  0  0  0
 14 15  2  0  0  0
 15  1  1  0  0  0
  1  2  1  0  0  0
  2  3  1  0  0  0
  3 19  1  0  0  0
 19 20  2  0  0  0
 20 21  1  0  0  0
 21 22  2  0  0  0
 22 23  1  0  0  0
  3  4  1  0  0  0
  4  5  1  0  0  0
  5  6  2  0  0  0
  6  7  1  0  0  0
  7  8  2  0  0  0
  8  9  1  0  0  0
 15 16  1  0  0  0
 16 17  2  0  0  0
 17 18  1  0  0  0
 17 12  1  0  0  0
  9  1  1  0  0  0
 23 19  1  0  0  0
  8  4  1  0  0  0
  9 10  1  0  0  0
M  END
> <minimizedAffinity>
-6.86602

> <CNNscore>
0.2641299069

> <CNNaffinity>
5.9866008759

> <CNN_VS>
1.5812402964

> <CNNaffinity_variance>
0.7962362170

$$$$
[H]c1nc([H])c2c(c1[H])c1c([H])nc(N([H])c3nnc(N([H])C([H])([H])C4([H])C([H])([H])N([H])C4([H])[H])c([H])c3[H])nc1n2C1([H])C([H])([H])C([H])([H])C([H])([H])C1([H])[H]


 34 39  0  0  0  0  0  0  0  0999 V2000
    0.3306  -53.6634  -28.1287 C   0  0  0  0  0  0  0  0  0  0  0  0
   -0.1885  -54.1506  -26.9426 C   0  0  0  0  0  0  0  0  0  0  0  0
    0.2345  -53.6199  -25.7432 C   0  0  0  0  0  0  0  0  0  0  0  0
   -0.1115  -53.9139  -24.4541 C   0  0  0  0  0  0  0  0  0  0  0  0
   -0.9832  -54.8177  -23.8513 C   0  0  0  0  0  0  0  0  0  0  0  0
   -1.0768  -54.8361  -22.5126 N   0  0  0  0  0  0  0  0  0  0  0  0
   -0.3683  -54.0213  -21.7022 C   0  0  0  0  0  0  0  0  0  0  0  0
    0.4788  -53.1411  -22.2581 N   0  0  0  0  0  0  0  0  0  0  0  0
    0.5999  -53.0936  -23.6062 C   0  0  0  0  0  0  0  0  0  0  0  0
    1.3792  -52.3013  -24.3988 N   0  0  0  0  0  0  0  0  0  0  0  0
    1.1677  -52.6089  -25.6830 C   0  0  0  0  0  0  0  0  0  0  0  0
    1.6643  -52.1469  -26.8848 C   0  0  0  0  0  0  0  0  0  0  0  0
    1.2443  -52.6713  -28.0362 N   0  0  0  0  0  0  0  0  0  0  0  0
    2.2959  -51.2832  -23.9383 C   0  0  0  0  0  0  0  0  0  0  0  0
    3.4797  -51.8492  -23.1972 C   0  0  0  0  0  0  0  0  0  0  0  0
    3.8061  -50.8822  -22.0947 C   0  0  0  0  0  0  0  0  0  0  0  0
    2.6827  -49.8991  -21.9936 C   0  0  0  0  0  0  0  0  0  0  0  0
    1.6619  -50.2644  -23.0455 C   0  0  0  0  0  0  0  0  0  0  0  0
   -0.5300  -54.1078  -20.2752 N   0  0  0  0  0  0  0  0  0  0  0  0
   -0.7945  -55.0264  -19.8584 H   0  0  0  0  0  0  0  0  0  0  0  0
   -0.3397  -52.9859  -19.4348 C   0  0  0  0  0  0  0  0  0  0  0  0
    0.3880  -51.8776  -19.8029 C   0  0  0  0  0  0  0  0  0  0  0  0
    0.5551  -50.7938  -18.9539 C   0  0  0  0  0  0  0  0  0  0  0  0
   -0.0220  -50.8200  -17.7020 C   0  0  0  0  0  0  0  0  0  0  0  0
   -0.7292  -51.9321  -17.3839 N   0  0  0  0  0  0  0  0  0  0  0  0
   -0.8785  -52.9569  -18.2058 N   0  0  0  0  0  0  0  0  0  0  0  0
    0.1085  -49.7443  -16.7810 N   0  0  0  0  0  0  0  0  0  0  0  0
   -0.7273  -49.2280  -16.4738 H   0  0  0  0  0  0  0  0  0  0  0  0
    1.4118  -49.3756  -16.2761 C   0  0  0  0  0  0  0  0  0  0  0  0
    2.1362  -50.5617  -15.6773 C   0  0  0  0  0  0  0  0  0  0  0  0
    3.4866  -50.7837  -16.3212 C   0  0  0  0  0  0  0  0  0  0  0  0
    4.0669  -51.0085  -14.9991 N   0  0  0  0  0  0  0  0  0  0  0  0
    2.9503  -50.2385  -14.4498 C   0  0  0  0  0  0  0  0  0  0  0  0
    4.9519  -50.4501  -14.8836 H   0  0  0  0  0  0  0  0  0  0  0  0
  1  2  2  0  0  0
  2  3  1  0  0  0
  3  4  1  0  0  0
  4  5  2  0  0  0
  5  6  1  0  0  0
  6  7  2  0  0  0
  7 19  1  0  0  0
 19 21  1  0  0  0
 21 22  2  0  0  0
 22 23  1  0  0  0
 23 24  2  0  0  0
 24 27  1  0  0  0
 27 29  1  0  0  0
 29 30  1  0  0  0
 30 31  1  0  0  0
 31 32  1  0  0  0
 32 33  1  0  0  0
 24 25  1  0  0  0
 25 26  2  0  0  0
  7  8  1  0  0  0
  8  9  2  0  0  0
  9 10  1  0  0  0
 10 14  1  0  0  0
 14 15  1  0  0  0
 15 16  1  0  0  0
 16 17  1  0  0  0
 17 18  1  0  0  0
 10 11  1  0  0  0
 11 12  1  0  0  0
 12 13  2  0  0  0
 13  1  1  0  0  0
 11  3  2  0  0  0
  9  4  1  0  0  0
 18 14  1  0  0  0
 26 21  1  0  0  0
 33 30  1  0  0  0
 19 20  1  0  0  0
 27 28  1  0  0  0
 32 34  1  0  0  0
M  END
> <minimizedAffinity>
-8.32471

> <CNNscore>
0.7605897188

> <CNNaffinity>
7.2969007492

> <CNN_VS>
5.5499477386

> <CNNaffinity_variance>
0.1896727532

$$$$
[H]c1nc([H])c2c(c1[H])c1c([H])nc(N([H])c3nnc(N([H])C([H])([H])C4([H])C([H])([H])N([H])C4([H])[H])c([H])c3[H])nc1n2C1([H])C([H])([H])C([H])([H])C([H])([H])C1([H])[H]


 34 39  0  0  0  0  0  0  0  0999 V2000
    0.3368  -53.5094  -28.0602 C   0  0  0  0  0  0  0  0  0  0  0  0
   -0.1719  -54.0215  -26.8801 C   0  0  0  0  0  0  0  0  0  0  0  0
    0.2617  -53.5161  -25.6735 C   0  0  0  0  0  0  0  0  0  0  0  0
   -0.0730  -53.8373  -24.3879 C   0  0  0  0  0  0  0  0  0  0  0  0
   -0.9394  -54.7538  -23.7966 C   0  0  0  0  0  0  0  0  0  0  0  0
   -1.0212  -54.8005  -22.4579 N   0  0  0  0  0  0  0  0  0  0  0  0
   -0.3056  -54.0028  -21.6367 C   0  0  0  0  0  0  0  0  0  0  0  0
    0.5366  -53.1108  -22.1813 N   0  0  0  0  0  0  0  0  0  0  0  0
    0.6458  -53.0349  -23.5292 C   0  0  0  0  0  0  0  0  0  0  0  0
    1.4182  -52.2259  -24.3117 N   0  0  0  0  0  0  0  0  0  0  0  0
    1.1953  -52.5064  -25.6002 C   0  0  0  0  0  0  0  0  0  0  0  0
    1.6814  -52.0192  -26.7963 C   0  0  0  0  0  0  0  0  0  0  0  0
    1.2513  -52.5192  -27.9548 N   0  0  0  0  0  0  0  0  0  0  0  0
    2.3389  -51.2177  -23.8380 C   0  0  0  0  0  0  0  0  0  0  0  0
    3.5536  -51.8007  -23.1632 C   0  0  0  0  0  0  0  0  0  0  0  0
    3.9070  -50.8790  -22.0306 C   0  0  0  0  0  0  0  0  0  0  0  0
    2.7770  -49.9155  -21.8481 C   0  0  0  0  0  0  0  0  0  0  0  0
    1.7247  -50.2470  -22.8800 C   0  0  0  0  0  0  0  0  0  0  0  0
   -0.4547  -54.1193  -20.2105 N   0  0  0  0  0  0  0  0  0  0  0  0
   -0.6708  -55.0563  -19.8070 H   0  0  0  0  0  0  0  0  0  0  0  0
   -0.3159  -53.0025  -19.3534 C   0  0  0  0  0  0  0  0  0  0  0  0
    0.4205  -51.8859  -19.6764 C   0  0  0  0  0  0  0  0  0  0  0  0
    0.5362  -50.8074  -18.8122 C   0  0  0  0  0  0  0  0  0  0  0  0
   -0.1027  -50.8477  -17.5911 C   0  0  0  0  0  0  0  0  0  0  0  0
   -0.8160  -51.9676  -17.3170 N   0  0  0  0  0  0  0  0  0  0  0  0
   -0.9158  -52.9872  -18.1529 N   0  0  0  0  0  0  0  0  0  0  0  0
   -0.0272  -49.7781  -16.6568 N   0  0  0  0  0  0  0  0  0  0  0  0
    0.7574  -49.1132  -16.7010 H   0  0  0  0  0  0  0  0  0  0  0  0
   -1.0496  -49.6235  -15.6469 C   0  0  0  0  0  0  0  0  0  0  0  0
   -1.3564  -48.1661  -15.3793 C   0  0  0  0  0  0  0  0  0  0  0  0
   -2.8024  -47.9546  -14.9898 C   0  0  0  0  0  0  0  0  0  0  0  0
   -2.3719  -47.0438  -13.9314 N   0  0  0  0  0  0  0  0  0  0  0  0
   -1.0747  -47.7202  -13.9666 C   0  0  0  0  0  0  0  0  0  0  0  0
   -2.8511  -47.2784  -13.0237 H   0  0  0  0  0  0  0  0  0  0  0  0
  1  2  2  0  0  0
  2  3  1  0  0  0
  3  4  1  0  0  0
  4  5  2  0  0  0
  5  6  1  0  0  0
  6  7  2  0  0  0
  7 19  1  0  0  0
 19 21  1  0  0  0
 21 22  2  0  0  0
 22 23  1  0  0  0
 23 24  2  0  0  0
 24 27  1  0  0  0
 27 29  1  0  0  0
 29 30  1  0  0  0
 30 31  1  0  0  0
 31 32  1  0  0  0
 32 33  1  0  0  0
 24 25  1  0  0  0
 25 26  2  0  0  0
  7  8  1  0  0  0
  8  9  2  0  0  0
  9 10  1  0  0  0
 10 14  1  0  0  0
 14 15  1  0  0  0
 15 16  1  0  0  0
 16 17  1  0  0  0
 17 18  1  0  0  0
 10 11  1  0  0  0
 11 12  1  0  0  0
 12 13  2  0  0  0
 13  1  1  0  0  0
 11  3  2  0  0  0
  9  4  1  0  0  0
 18 14  1  0  0  0
 26 21  1  0  0  0
 33 30  1  0  0  0
 19 20  1  0  0  0
 27 28  1  0  0  0
 32 34  1  0  0  0
M  END
> <minimizedAffinity>
-8.28168

> <CNNscore>
0.7557053566

> <CNNaffinity>
7.2999320030

> <CNN_VS>
5.5165977478

> <CNNaffinity_variance>
0.2630017698

$$$$
[H]c1nc([H])c2c(c1[H])c1c([H])nc(N([H])c3nnc(N([H])C([H])([H])C4([H])C([H])([H])N([H])C4([H])[H])c([H])c3[H])nc1n2C1([H])C([H])([H])C([H])([H])C([H])([H])C1([H])[H]


 34 39  0  0  0  0  0  0  0  0999 V2000
    0.3285  -53.6857  -27.3823 C   0  0  0  0  0  0  0  0  0  0  0  0
   -0.1909  -54.1362  -26.1819 C   0  0  0  0  0  0  0  0  0  0  0  0
    0.2104  -53.5495  -25.0013 C   0  0  0  0  0  0  0  0  0  0  0  0
   -0.1408  -53.7993  -23.7043 C   0  0  0  0  0  0  0  0  0  0  0  0
   -0.9989  -54.6967  -23.0729 C   0  0  0  0  0  0  0  0  0  0  0  0
   -1.1039  -54.6639  -21.7353 N   0  0  0  0  0  0  0  0  0  0  0  0
   -0.4197  -53.8027  -20.9524 C   0  0  0  0  0  0  0  0  0  0  0  0
    0.4139  -52.9275  -21.5362 N   0  0  0  0  0  0  0  0  0  0  0  0
    0.5458  -52.9311  -22.8841 C   0  0  0  0  0  0  0  0  0  0  0  0
    1.3156  -52.1546  -23.7014 N   0  0  0  0  0  0  0  0  0  0  0  0
    1.1218  -52.5174  -24.9740 C   0  0  0  0  0  0  0  0  0  0  0  0
    1.6193  -52.0932  -26.1893 C   0  0  0  0  0  0  0  0  0  0  0  0
    1.2205  -52.6716  -27.3222 N   0  0  0  0  0  0  0  0  0  0  0  0
    2.2068  -51.1000  -23.2746 C   0  0  0  0  0  0  0  0  0  0  0  0
    3.3600  -51.6038  -22.4457 C   0  0  0  0  0  0  0  0  0  0  0  0
    3.6340  -50.5598  -21.4007 C   0  0  0  0  0  0  0  0  0  0  0  0
    2.5028  -49.5806  -21.4169 C   0  0  0  0  0  0  0  0  0  0  0  0
    1.5301  -50.0262  -22.4833 C   0  0  0  0  0  0  0  0  0  0  0  0
   -0.5921  -53.8358  -19.5244 N   0  0  0  0  0  0  0  0  0  0  0  0
   -0.8570  -54.7389  -19.0753 H   0  0  0  0  0  0  0  0  0  0  0  0
   -0.4119  -52.6824  -18.7256 C   0  0  0  0  0  0  0  0  0  0  0  0
    0.3713  -51.6150  -19.1009 C   0  0  0  0  0  0  0  0  0  0  0  0
    0.5267  -50.4985  -18.2930 C   0  0  0  0  0  0  0  0  0  0  0  0
   -0.1194  -50.4489  -17.0761 C   0  0  0  0  0  0  0  0  0  0  0  0
   -0.8794  -51.5231  -16.7493 N   0  0  0  0  0  0  0  0  0  0  0  0
   -1.0167  -52.5800  -17.5318 N   0  0  0  0  0  0  0  0  0  0  0  0
   -0.0047  -49.3360  -16.1982 N   0  0  0  0  0  0  0  0  0  0  0  0
    0.1302  -48.3910  -16.5832 H   0  0  0  0  0  0  0  0  0  0  0  0
   -0.0777  -49.5300  -14.7677 C   0  0  0  0  0  0  0  0  0  0  0  0
    0.5139  -48.3593  -14.0131 C   0  0  0  0  0  0  0  0  0  0  0  0
    1.8982  -48.0071  -14.5103 C   0  0  0  0  0  0  0  0  0  0  0  0
    1.5404  -46.5910  -14.4674 N   0  0  0  0  0  0  0  0  0  0  0  0
    0.1416  -47.0082  -14.5696 C   0  0  0  0  0  0  0  0  0  0  0  0
    1.8169  -46.1121  -15.3634 H   0  0  0  0  0  0  0  0  0  0  0  0
  1  2  2  0  0  0
  2  3  1  0  0  0
  3  4  1  0  0  0
  4  5  2  0  0  0
  5  6  1  0  0  0
  6  7  2  0  0  0
  7 19  1  0  0  0
 19 21  1  0  0  0
 21 22  2  0  0  0
 22 23  1  0  0  0
 23 24  2  0  0  0
 24 27  1  0  0  0
 27 29  1  0  0  0
 29 30  1  0  0  0
 30 31  1  0  0  0
 31 32  1  0  0  0
 32 33  1  0  0  0
 24 25  1  0  0  0
 25 26  2  0  0  0
  7  8  1  0  0  0
  8  9  2  0  0  0
  9 10  1  0  0  0
 10 14  1  0  0  0
 14 15  1  0  0  0
 15 16  1  0  0  0
 16 17  1  0  0  0
 17 18  1  0  0  0
 10 11  1  0  0  0
 11 12  1  0  0  0
 12 13  2  0  0  0
 13  1  1  0  0  0
 11  3  2  0  0  0
  9  4  1  0  0  0
 18 14  1  0  0  0
 26 21  1  0  0  0
 33 30  1  0  0  0
 19 20  1  0  0  0
 27 28  1  0  0  0
 32 34  1  0  0  0
M  END
> <minimizedAffinity>
-7.72036

> <CNNscore>
0.7252272964

> <CNNaffinity>
7.1875138283

> <CNN_VS>
5.2125811577

> <CNNaffinity_variance>
0.2728001475

$$$$
[H]c1nc([H])c2c(c1[H])c1c([H])nc(N([H])c3nnc(N([H])C([H])([H])C4([H])C([H])([H])N([H])C4([H])[H])c([H])c3[H])nc1n2C1([H])C([H])([H])C([H])([H])C([H])([H])C1([H])[H]


 34 39  0  0  0  0  0  0  0  0999 V2000
    1.4117  -48.4958  -15.3158 C   0  0  0  0  0  0  0  0  0  0  0  0
    0.6592  -49.5885  -15.7075 C   0  0  0  0  0  0  0  0  0  0  0  0
    0.8295  -50.1183  -16.9682 C   0  0  0  0  0  0  0  0  0  0  0  0
    0.2259  -51.1734  -17.5929 C   0  0  0  0  0  0  0  0  0  0  0  0
   -0.7538  -52.0976  -17.2375 C   0  0  0  0  0  0  0  0  0  0  0  0
   -1.1195  -53.0321  -18.1286 N   0  0  0  0  0  0  0  0  0  0  0  0
   -0.5892  -53.1336  -19.3660 C   0  0  0  0  0  0  0  0  0  0  0  0
    0.3569  -52.2552  -19.7332 N   0  0  0  0  0  0  0  0  0  0  0  0
    0.7515  -51.2978  -18.8602 C   0  0  0  0  0  0  0  0  0  0  0  0
    1.6792  -50.3053  -18.9930 N   0  0  0  0  0  0  0  0  0  0  0  0
    1.7340  -49.5916  -17.8633 C   0  0  0  0  0  0  0  0  0  0  0  0
    2.4677  -48.5023  -17.4396 C   0  0  0  0  0  0  0  0  0  0  0  0
    2.2906  -48.0022  -16.2167 N   0  0  0  0  0  0  0  0  0  0  0  0
    2.4857  -50.0511  -20.1650 C   0  0  0  0  0  0  0  0  0  0  0  0
    1.6685  -49.6502  -21.3659 C   0  0  0  0  0  0  0  0  0  0  0  0
    2.3340  -50.2577  -22.5681 C   0  0  0  0  0  0  0  0  0  0  0  0
    3.3638  -51.2297  -22.0852 C   0  0  0  0  0  0  0  0  0  0  0  0
    3.3318  -51.2144  -20.5750 C   0  0  0  0  0  0  0  0  0  0  0  0
   -1.0399  -54.1674  -20.2594 N   0  0  0  0  0  0  0  0  0  0  0  0
   -1.4904  -55.0155  -19.8532 H   0  0  0  0  0  0  0  0  0  0  0  0
   -0.8866  -54.0589  -21.6615 C   0  0  0  0  0  0  0  0  0  0  0  0
   -0.1880  -53.0423  -22.2714 C   0  0  0  0  0  0  0  0  0  0  0  0
   -0.0570  -52.9656  -23.6500 C   0  0  0  0  0  0  0  0  0  0  0  0
   -0.6412  -53.9329  -24.4397 C   0  0  0  0  0  0  0  0  0  0  0  0
   -1.3189  -54.9142  -23.7946 N   0  0  0  0  0  0  0  0  0  0  0  0
   -1.4340  -54.9721  -22.4787 N   0  0  0  0  0  0  0  0  0  0  0  0
   -0.5469  -53.9163  -25.8587 N   0  0  0  0  0  0  0  0  0  0  0  0
   -0.0392  -54.6664  -26.3476 H   0  0  0  0  0  0  0  0  0  0  0  0
   -1.1625  -52.8488  -26.6141 C   0  0  0  0  0  0  0  0  0  0  0  0
   -0.2148  -52.2729  -27.6437 C   0  0  0  0  0  0  0  0  0  0  0  0
    1.2093  -52.7307  -27.4204 C   0  0  0  0  0  0  0  0  0  0  0  0
    1.3484  -52.9600  -28.8568 N   0  0  0  0  0  0  0  0  0  0  0  0
   -0.1090  -53.0807  -28.9126 C   0  0  0  0  0  0  0  0  0  0  0  0
    1.7733  -53.9055  -29.0412 H   0  0  0  0  0  0  0  0  0  0  0  0
  1  2  2  0  0  0
  2  3  1  0  0  0
  3  4  1  0  0  0
  4  5  2  0  0  0
  5  6  1  0  0  0
  6  7  2  0  0  0
  7 19  1  0  0  0
 19 21  1  0  0  0
 21 22  2  0  0  0
 22 23  1  0  0  0
 23 24  2  0  0  0
 24 27  1  0  0  0
 27 29  1  0  0  0
 29 30  1  0  0  0
 30 31  1  0  0  0
 31 32  1  0  0  0
 32 33  1  0  0  0
 24 25  1  0  0  0
 25 26  2  0  0  0
  7  8  1  0  0  0
  8  9  2  0  0  0
  9 10  1  0  0  0
 10 14  1  0  0  0
 14 15  1  0  0  0
 15 16  1  0  0  0
 16 17  1  0  0  0
 17 18  1  0  0  0
 10 11  1  0  0  0
 11 12  1  0  0  0
 12 13  2  0  0  0
 13  1  1  0  0  0
 11  3  2  0  0  0
  9  4  1  0  0  0
 18 14  1  0  0  0
 26 21  1  0  0  0
 33 30  1  0  0  0
 19 20  1  0  0  0
 27 28  1  0  0  0
 32 34  1  0  0  0
M  END
> <minimizedAffinity>
-8.84863

> <CNNscore>
0.6577923298

> <CNNaffinity>
7.4642539024

> <CNN_VS>
4.9099287987

> <CNNaffinity_variance>
0.1127844825

$$$$
[H]c1nc([H])c2c(c1[H])c1c([H])nc(N([H])c3nnc(N([H])C([H])([H])C4([H])C([H])([H])N([H])C4([H])[H])c([H])c3[H])nc1n2C1([H])C([H])([H])C([H])([H])C([H])([H])C1([H])[H]


 34 39  0  0  0  0  0  0  0  0999 V2000
    0.2715  -53.5531  -28.1618 C   0  0  0  0  0  0  0  0  0  0  0  0
   -0.2035  -53.9661  -26.9300 C   0  0  0  0  0  0  0  0  0  0  0  0
    0.3420  -53.4431  -25.7775 C   0  0  0  0  0  0  0  0  0  0  0  0
    0.0619  -53.6756  -24.4602 C   0  0  0  0  0  0  0  0  0  0  0  0
   -0.8375  -54.4887  -23.7743 C   0  0  0  0  0  0  0  0  0  0  0  0
   -0.8408  -54.4664  -22.4324 N   0  0  0  0  0  0  0  0  0  0  0  0
   -0.0149  -53.6936  -21.6953 C   0  0  0  0  0  0  0  0  0  0  0  0
    0.8613  -52.9008  -22.3320 N   0  0  0  0  0  0  0  0  0  0  0  0
    0.8936  -52.8967  -23.6860 C   0  0  0  0  0  0  0  0  0  0  0  0
    1.6791  -52.1917  -24.5517 N   0  0  0  0  0  0  0  0  0  0  0  0
    1.3563  -52.5121  -25.8093 C   0  0  0  0  0  0  0  0  0  0  0  0
    1.8058  -52.1227  -27.0546 C   0  0  0  0  0  0  0  0  0  0  0  0
    1.2671  -52.6384  -28.1595 N   0  0  0  0  0  0  0  0  0  0  0  0
    2.7048  -51.2425  -24.1834 C   0  0  0  0  0  0  0  0  0  0  0  0
    2.6458  -49.9704  -24.9891 C   0  0  0  0  0  0  0  0  0  0  0  0
    4.0647  -49.5300  -25.2122 C   0  0  0  0  0  0  0  0  0  0  0  0
    4.9673  -50.6483  -24.7960 C   0  0  0  0  0  0  0  0  0  0  0  0
    4.0943  -51.7813  -24.3100 C   0  0  0  0  0  0  0  0  0  0  0  0
   -0.0854  -53.7313  -20.2588 N   0  0  0  0  0  0  0  0  0  0  0  0
   -0.6057  -54.5133  -19.8058 H   0  0  0  0  0  0  0  0  0  0  0  0
    0.5290  -52.7412  -19.4568 C   0  0  0  0  0  0  0  0  0  0  0  0
   -0.1588  -51.9611  -18.5558 C   0  0  0  0  0  0  0  0  0  0  0  0
    0.4749  -50.9984  -17.7843 C   0  0  0  0  0  0  0  0  0  0  0  0
    1.8343  -50.8114  -17.9184 C   0  0  0  0  0  0  0  0  0  0  0  0
    2.4691  -51.6028  -18.8178 N   0  0  0  0  0  0  0  0  0  0  0  0
    1.8492  -52.5162  -19.5455 N   0  0  0  0  0  0  0  0  0  0  0  0
    2.5480  -49.8431  -17.1597 N   0  0  0  0  0  0  0  0  0  0  0  0
    2.3556  -49.7360  -16.1543 H   0  0  0  0  0  0  0  0  0  0  0  0
    3.5421  -49.0103  -17.7981 C   0  0  0  0  0  0  0  0  0  0  0  0
    2.9139  -48.0286  -18.7633 C   0  0  0  0  0  0  0  0  0  0  0  0
    3.6708  -46.7200  -18.8118 C   0  0  0  0  0  0  0  0  0  0  0  0
    3.5545  -46.7203  -20.2684 N   0  0  0  0  0  0  0  0  0  0  0  0
    3.3829  -48.1715  -20.1893 C   0  0  0  0  0  0  0  0  0  0  0  0
    4.4857  -46.5137  -20.7141 H   0  0  0  0  0  0  0  0  0  0  0  0
  1  2  2  0  0  0
  2  3  1  0  0  0
  3  4  1  0  0  0
  4  5  2  0  0  0
  5  6  1  0  0  0
  6  7  2  0  0  0
  7 19  1  0  0  0
 19 21  1  0  0  0
 21 22  2  0  0  0
 22 23  1  0  0  0
 23 24  2  0  0  0
 24 27  1  0  0  0
 27 29  1  0  0  0
 29 30  1  0  0  0
 30 31  1  0  0  0
 31 32  1  0  0  0
 32 33  1  0  0  0
 24 25  1  0  0  0
 25 26  2  0  0  0
  7  8  1  0  0  0
  8  9  2  0  0  0
  9 10  1  0  0  0
 10 14  1  0  0  0
 14 15  1  0  0  0
 15 16  1  0  0  0
 16 17  1  0  0  0
 17 18  1  0  0  0
 10 11  1  0  0  0
 11 12  1  0  0  0
 12 13  2  0  0  0
 13  1  1  0  0  0
 11  3  2  0  0  0
  9  4  1  0  0  0
 18 14  1  0  0  0
 26 21  1  0  0  0
 33 30  1  0  0  0
 19 20  1  0  0  0
 27 28  1  0  0  0
 32 34  1  0  0  0
M  END
> <minimizedAffinity>
-7.42685

> <CNNscore>
0.5731384158

> <CNNaffinity>
7.2149991989

> <CNN_VS>
4.1351933479

> <CNNaffinity_variance>
0.5004003644

$$$$
[H]c1nc([H])c2c(c1[H])c1c([H])nc(N([H])c3nnc(N([H])C([H])([H])C4([H])C([H])([H])N([H])C4([H])[H])c([H])c3[H])nc1n2C1([H])C([H])([H])C([H])([H])C([H])([H])C1([H])[H]


 34 39  0  0  0  0  0  0  0  0999 V2000
    0.6442  -50.3521  -16.8267 C   0  0  0  0  0  0  0  0  0  0  0  0
   -0.1299  -51.2971  -17.4760 C   0  0  0  0  0  0  0  0  0  0  0  0
    0.2196  -51.7127  -18.7426 C   0  0  0  0  0  0  0  0  0  0  0  0
   -0.3612  -52.6153  -19.5886 C   0  0  0  0  0  0  0  0  0  0  0  0
   -1.4809  -53.4418  -19.5274 C   0  0  0  0  0  0  0  0  0  0  0  0
   -1.7666  -54.2278  -20.5770 N   0  0  0  0  0  0  0  0  0  0  0  0
   -1.0255  -54.2680  -21.7048 C   0  0  0  0  0  0  0  0  0  0  0  0
    0.0587  -53.4813  -21.7891 N   0  0  0  0  0  0  0  0  0  0  0  0
    0.3784  -52.6744  -20.7493 C   0  0  0  0  0  0  0  0  0  0  0  0
    1.4123  -51.7967  -20.5938 N   0  0  0  0  0  0  0  0  0  0  0  0
    1.3264  -51.2143  -19.3931 C   0  0  0  0  0  0  0  0  0  0  0  0
    2.0758  -50.2736  -18.7163 C   0  0  0  0  0  0  0  0  0  0  0  0
    1.7237  -49.8825  -17.4915 N   0  0  0  0  0  0  0  0  0  0  0  0
    2.4475  -51.5268  -21.5655 C   0  0  0  0  0  0  0  0  0  0  0  0
    3.8337  -51.5721  -20.9763 C   0  0  0  0  0  0  0  0  0  0  0  0
    4.6363  -50.5075  -21.6689 C   0  0  0  0  0  0  0  0  0  0  0  0
    3.6921  -49.6545  -22.4560 C   0  0  0  0  0  0  0  0  0  0  0  0
    2.3003  -50.2036  -22.2471 C   0  0  0  0  0  0  0  0  0  0  0  0
   -1.4041  -55.1412  -22.7838 N   0  0  0  0  0  0  0  0  0  0  0  0
   -1.9695  -55.9893  -22.5635 H   0  0  0  0  0  0  0  0  0  0  0  0
   -1.0299  -54.8767  -24.1221 C   0  0  0  0  0  0  0  0  0  0  0  0
   -0.3081  -55.7567  -24.8956 C   0  0  0  0  0  0  0  0  0  0  0  0
    0.0425  -55.4659  -26.2055 C   0  0  0  0  0  0  0  0  0  0  0  0
   -0.3396  -54.2612  -26.7564 C   0  0  0  0  0  0  0  0  0  0  0  0
   -1.0488  -53.4269  -25.9568 N   0  0  0  0  0  0  0  0  0  0  0  0
   -1.3747  -53.7202  -24.7094 N   0  0  0  0  0  0  0  0  0  0  0  0
   -0.0147  -53.8979  -28.0924 N   0  0  0  0  0  0  0  0  0  0  0  0
   -0.5883  -54.2468  -28.8726 H   0  0  0  0  0  0  0  0  0  0  0  0
    1.1186  -53.0402  -28.3557 C   0  0  0  0  0  0  0  0  0  0  0  0
    1.9515  -52.8156  -27.1124 C   0  0  0  0  0  0  0  0  0  0  0  0
    3.4016  -52.5428  -27.4446 C   0  0  0  0  0  0  0  0  0  0  0  0
    3.4129  -51.4655  -26.4575 N   0  0  0  0  0  0  0  0  0  0  0  0
    1.9603  -51.3909  -26.6184 C   0  0  0  0  0  0  0  0  0  0  0  0
    3.8433  -50.5951  -26.8645 H   0  0  0  0  0  0  0  0  0  0  0  0
  1  2  2  0  0  0
  2  3  1  0  0  0
  3  4  1  0  0  0
  4  5  2  0  0  0
  5  6  1  0  0  0
  6  7  2  0  0  0
  7 19  1  0  0  0
 19 21  1  0  0  0
 21 22  2  0  0  0
 22 23  1  0  0  0
 23 24  2  0  0  0
 24 27  1  0  0  0
 27 29  1  0  0  0
 29 30  1  0  0  0
 30 31  1  0  0  0
 31 32  1  0  0  0
 32 33  1  0  0  0
 24 25  1  0  0  0
 25 26  2  0  0  0
  7  8  1  0  0  0
  8  9  2  0  0  0
  9 10  1  0  0  0
 10 14  1  0  0  0
 14 15  1  0  0  0
 15 16  1  0  0  0
 16 17  1  0  0  0
 17 18  1  0  0  0
 10 11  1  0  0  0
 11 12  1  0  0  0
 12 13  2  0  0  0
 13  1  1  0  0  0
 11  3  2  0  0  0
  9  4  1  0  0  0
 18 14  1  0  0  0
 26 21  1  0  0  0
 33 30  1  0  0  0
 19 20  1  0  0  0
 27 28  1  0  0  0
 32 34  1  0  0  0
M  END
> <minimizedAffinity>
-7.78416

> <CNNscore>
0.5420324206

> <CNNaffinity>
7.3390717506

> <CNN_VS>
3.9780147076

> <CNNaffinity_variance>
0.1336102635

$$$$
[H]c1nc([H])c2c(c1[H])c1c([H])nc(N([H])c3nnc(N([H])C([H])([H])C4([H])C([H])([H])N([H])C4([H])[H])c([H])c3[H])nc1n2C1([H])C([H])([H])C([H])([H])C([H])([H])C1([H])[H]


 34 39  0  0  0  0  0  0  0  0999 V2000
    0.6905  -54.1045  -27.9785 C   0  0  0  0  0  0  0  0  0  0  0  0
    0.1448  -54.1225  -26.7074 C   0  0  0  0  0  0  0  0  0  0  0  0
    0.8142  -53.5132  -25.6683 C   0  0  0  0  0  0  0  0  0  0  0  0
    0.5022  -53.3884  -24.3435 C   0  0  0  0  0  0  0  0  0  0  0  0
   -0.5584  -53.8000  -23.5397 C   0  0  0  0  0  0  0  0  0  0  0  0
   -0.5401  -53.4945  -22.2330 N   0  0  0  0  0  0  0  0  0  0  0  0
    0.4567  -52.8030  -21.6406 C   0  0  0  0  0  0  0  0  0  0  0  0
    1.4904  -52.3947  -22.3931 N   0  0  0  0  0  0  0  0  0  0  0  0
    1.5065  -52.6847  -23.7160 C   0  0  0  0  0  0  0  0  0  0  0  0
    2.4283  -52.3864  -24.6776 N   0  0  0  0  0  0  0  0  0  0  0  0
    2.0226  -52.8790  -25.8528 C   0  0  0  0  0  0  0  0  0  0  0  0
    2.5378  -52.8801  -27.1331 C   0  0  0  0  0  0  0  0  0  0  0  0
    1.8773  -53.4742  -28.1271 N   0  0  0  0  0  0  0  0  0  0  0  0
    3.6571  -51.6531  -24.4745 C   0  0  0  0  0  0  0  0  0  0  0  0
    4.6668  -52.4130  -23.6536 C   0  0  0  0  0  0  0  0  0  0  0  0
    5.3816  -51.4043  -22.7998 C   0  0  0  0  0  0  0  0  0  0  0  0
    4.6384  -50.1092  -22.8932 C   0  0  0  0  0  0  0  0  0  0  0  0
    3.4612  -50.3251  -23.8149 C   0  0  0  0  0  0  0  0  0  0  0  0
    0.3964  -52.5183  -20.2316 N   0  0  0  0  0  0  0  0  0  0  0  0
   -0.3166  -53.0129  -19.6533 H   0  0  0  0  0  0  0  0  0  0  0  0
    1.2741  -51.5922  -19.6207 C   0  0  0  0  0  0  0  0  0  0  0  0
    1.0066  -50.2461  -19.5217 C   0  0  0  0  0  0  0  0  0  0  0  0
    1.8896  -49.3647  -18.9159 C   0  0  0  0  0  0  0  0  0  0  0  0
    3.0728  -49.8438  -18.3951 C   0  0  0  0  0  0  0  0  0  0  0  0
    3.2927  -51.1762  -18.5160 N   0  0  0  0  0  0  0  0  0  0  0  0
    2.4396  -52.0027  -19.0968 N   0  0  0  0  0  0  0  0  0  0  0  0
    4.0233  -48.9972  -17.7608 N   0  0  0  0  0  0  0  0  0  0  0  0
    4.9030  -48.7635  -18.2415 H   0  0  0  0  0  0  0  0  0  0  0  0
    3.7559  -48.4650  -16.4438 C   0  0  0  0  0  0  0  0  0  0  0  0
    3.9218  -46.9614  -16.4033 C   0  0  0  0  0  0  0  0  0  0  0  0
    3.5189  -46.3125  -17.7086 C   0  0  0  0  0  0  0  0  0  0  0  0
    2.8167  -45.2717  -16.9609 N   0  0  0  0  0  0  0  0  0  0  0  0
    2.7323  -46.2189  -15.8486 C   0  0  0  0  0  0  0  0  0  0  0  0
    1.8507  -45.1227  -17.3523 H   0  0  0  0  0  0  0  0  0  0  0  0
  1  2  2  0  0  0
  2  3  1  0  0  0
  3  4  1  0  0  0
  4  5  2  0  0  0
  5  6  1  0  0  0
  6  7  2  0  0  0
  7 19  1  0  0  0
 19 21  1  0  0  0
 21 22  2  0  0  0
 22 23  1  0  0  0
 23 24  2  0  0  0
 24 27  1  0  0  0
 27 29  1  0  0  0
 29 30  1  0  0  0
 30 31  1  0  0  0
 31 32  1  0  0  0
 32 33  1  0  0  0
 24 25  1  0  0  0
 25 26  2  0  0  0
  7  8  1  0  0  0
  8  9  2  0  0  0
  9 10  1  0  0  0
 10 14  1  0  0  0
 14 15  1  0  0  0
 15 16  1  0  0  0
 16 17  1  0  0  0
 17 18  1  0  0  0
 10 11  1  0  0  0
 11 12  1  0  0  0
 12 13  2  0  0  0
 13  1  1  0  0  0
 11  3  2  0  0  0
  9  4  1  0  0  0
 18 14  1  0  0  0
 26 21  1  0  0  0
 33 30  1  0  0  0
 19 20  1  0  0  0
 27 28  1  0  0  0
 32 34  1  0  0  0
M  END
> <minimizedAffinity>
-7.35599

> <CNNscore>
0.4230454862

> <CNNaffinity>
6.9874320030

> <CNN_VS>
2.9560015202

> <CNNaffinity_variance>
0.6040998101

$$$$
[H]c1nc([H])c2c(c1[H])c1c([H])nc(N([H])c3nnc(N([H])C([H])([H])C4([H])C([H])([H])N([H])C4([H])[H])c([H])c3[H])nc1n2C1([H])C([H])([H])C([H])([H])C([H])([H])C1([H])[H]


 34 39  0  0  0  0  0  0  0  0999 V2000
    0.7646  -52.3294  -27.4178 C   0  0  0  0  0  0  0  0  0  0  0  0
    0.1334  -52.5913  -26.2150 C   0  0  0  0  0  0  0  0  0  0  0  0
    0.8213  -52.4248  -25.0325 C   0  0  0  0  0  0  0  0  0  0  0  0
    0.4405  -52.6102  -23.7331 C   0  0  0  0  0  0  0  0  0  0  0  0
   -0.7308  -53.0199  -23.1001 C   0  0  0  0  0  0  0  0  0  0  0  0
   -0.7545  -53.0915  -21.7602 N   0  0  0  0  0  0  0  0  0  0  0  0
    0.3016  -52.7867  -20.9763 C   0  0  0  0  0  0  0  0  0  0  0  0
    1.4422  -52.3892  -21.5614 N   0  0  0  0  0  0  0  0  0  0  0  0
    1.5035  -52.3048  -22.9118 C   0  0  0  0  0  0  0  0  0  0  0  0
    2.5303  -51.9332  -23.7310 N   0  0  0  0  0  0  0  0  0  0  0  0
    2.1315  -52.0016  -25.0056 C   0  0  0  0  0  0  0  0  0  0  0  0
    2.7300  -51.7496  -26.2233 C   0  0  0  0  0  0  0  0  0  0  0  0
    2.0503  -51.9156  -27.3580 N   0  0  0  0  0  0  0  0  0  0  0  0
    3.8496  -51.5260  -23.3038 C   0  0  0  0  0  0  0  0  0  0  0  0
    4.2018  -50.1259  -23.7357 C   0  0  0  0  0  0  0  0  0  0  0  0
    5.6673  -50.1280  -24.0666 C   0  0  0  0  0  0  0  0  0  0  0  0
    6.1315  -51.5499  -24.1037 C   0  0  0  0  0  0  0  0  0  0  0  0
    4.9416  -52.4257  -23.7890 C   0  0  0  0  0  0  0  0  0  0  0  0
    0.1897  -52.8912  -19.5457 N   0  0  0  0  0  0  0  0  0  0  0  0
    0.0677  -53.8368  -19.1232 H   0  0  0  0  0  0  0  0  0  0  0  0
    0.2412  -51.7515  -18.7094 C   0  0  0  0  0  0  0  0  0  0  0  0
    0.9923  -50.6346  -18.9954 C   0  0  0  0  0  0  0  0  0  0  0  0
    1.0204  -49.5332  -18.1530 C   0  0  0  0  0  0  0  0  0  0  0  0
    0.2763  -49.5502  -16.9925 C   0  0  0  0  0  0  0  0  0  0  0  0
   -0.4475  -50.6714  -16.7530 N   0  0  0  0  0  0  0  0  0  0  0  0
   -0.4629  -51.7129  -17.5673 N   0  0  0  0  0  0  0  0  0  0  0  0
    0.2584  -48.4565  -16.0837 N   0  0  0  0  0  0  0  0  0  0  0  0
    0.0845  -47.5035  -16.4317 H   0  0  0  0  0  0  0  0  0  0  0  0
    0.4835  -48.6811  -14.6737 C   0  0  0  0  0  0  0  0  0  0  0  0
    0.2579  -47.4232  -13.8633 C   0  0  0  0  0  0  0  0  0  0  0  0
    1.5584  -46.8204  -13.3807 C   0  0  0  0  0  0  0  0  0  0  0  0
    1.0675  -45.4947  -13.7506 N   0  0  0  0  0  0  0  0  0  0  0  0
    0.1611  -46.1626  -14.6852 C   0  0  0  0  0  0  0  0  0  0  0  0
    1.7958  -44.9709  -14.3017 H   0  0  0  0  0  0  0  0  0  0  0  0
  1  2  2  0  0  0
  2  3  1  0  0  0
  3  4  1  0  0  0
  4  5  2  0  0  0
  5  6  1  0  0  0
  6  7  2  0  0  0
  7 19  1  0  0  0
 19 21  1  0  0  0
 21 22  2  0  0  0
 22 23  1  0  0  0
 23 24  2  0  0  0
 24 27  1  0  0  0
 27 29  1  0  0  0
 29 30  1  0  0  0
 30 31  1  0  0  0
 31 32  1  0  0  0
 32 33  1  0  0  0
 24 25  1  0  0  0
 25 26  2  0  0  0
  7  8  1  0  0  0
  8  9  2  0  0  0
  9 10  1  0  0  0
 10 14  1  0  0  0
 14 15  1  0  0  0
 15 16  1  0  0  0
 16 17  1  0  0  0
 17 18  1  0  0  0
 10 11  1  0  0  0
 11 12  1  0  0  0
 12 13  2  0  0  0
 13  1  1  0  0  0
 11  3  2  0  0  0
  9  4  1  0  0  0
 18 14  1  0  0  0
 26 21  1  0  0  0
 33 30  1  0  0  0
 19 20  1  0  0  0
 27 28  1  0  0  0
 32 34  1  0  0  0
M  END
> <minimizedAffinity>
-6.88257

> <CNNscore>
0.3783351779

> <CNNaffinity>
6.7390260696

> <CNN_VS>
2.5496106148

> <CNNaffinity_variance>
0.8942716718

$$$$
[H]c1nc([H])c2c(c1[H])c1c([H])nc(N([H])c3nnc(N([H])C([H])([H])C4([H])C([H])([H])N([H])C4([H])[H])c([H])c3[H])nc1n2C1([H])C([H])([H])C([H])([H])C([H])([H])C1([H])[H]


 34 39  0  0  0  0  0  0  0  0999 V2000
   -0.2655  -53.4654  -27.0546 C   0  0  0  0  0  0  0  0  0  0  0  0
   -0.5735  -53.6027  -25.7130 C   0  0  0  0  0  0  0  0  0  0  0  0
    0.1690  -52.9263  -24.7694 C   0  0  0  0  0  0  0  0  0  0  0  0
    0.0768  -52.8880  -23.4063 C   0  0  0  0  0  0  0  0  0  0  0  0
   -0.7555  -53.4807  -22.4595 C   0  0  0  0  0  0  0  0  0  0  0  0
   -0.5557  -53.2123  -21.1598 N   0  0  0  0  0  0  0  0  0  0  0  0
    0.4157  -52.3918  -20.7064 C   0  0  0  0  0  0  0  0  0  0  0  0
    1.2314  -51.8079  -21.5983 N   0  0  0  0  0  0  0  0  0  0  0  0
    1.0600  -52.0552  -22.9189 C   0  0  0  0  0  0  0  0  0  0  0  0
    1.7465  -51.5915  -24.0038 N   0  0  0  0  0  0  0  0  0  0  0  0
    1.2200  -52.1081  -25.1193 C   0  0  0  0  0  0  0  0  0  0  0  0
    1.4993  -51.9942  -26.4659 C   0  0  0  0  0  0  0  0  0  0  0  0
    0.7712  -52.6554  -27.3658 N   0  0  0  0  0  0  0  0  0  0  0  0
    2.8700  -50.6831  -23.9702 C   0  0  0  0  0  0  0  0  0  0  0  0
    4.1099  -51.3024  -23.3786 C   0  0  0  0  0  0  0  0  0  0  0  0
    4.8078  -50.2225  -22.6015 C   0  0  0  0  0  0  0  0  0  0  0  0
    3.8771  -49.0562  -22.4915 C   0  0  0  0  0  0  0  0  0  0  0  0
    2.6003  -49.4230  -23.2107 C   0  0  0  0  0  0  0  0  0  0  0  0
    0.5598  -52.1590  -19.2940 N   0  0  0  0  0  0  0  0  0  0  0  0
   -0.0610  -52.6793  -18.6373 H   0  0  0  0  0  0  0  0  0  0  0  0
    1.5151  -51.2495  -18.7827 C   0  0  0  0  0  0  0  0  0  0  0  0
    1.2176  -49.9503  -18.4403 C   0  0  0  0  0  0  0  0  0  0  0  0
    2.1789  -49.0840  -17.9414 C   0  0  0  0  0  0  0  0  0  0  0  0
    3.4735  -49.5303  -17.7809 C   0  0  0  0  0  0  0  0  0  0  0  0
    3.7189  -50.8168  -18.1313 N   0  0  0  0  0  0  0  0  0  0  0  0
    2.7901  -51.6295  -18.6057 N   0  0  0  0  0  0  0  0  0  0  0  0
    4.5088  -48.6967  -17.2750 N   0  0  0  0  0  0  0  0  0  0  0  0
    5.0120  -48.9666  -16.4186 H   0  0  0  0  0  0  0  0  0  0  0  0
    4.8549  -47.4725  -17.9612 C   0  0  0  0  0  0  0  0  0  0  0  0
    5.3428  -47.7385  -19.3688 C   0  0  0  0  0  0  0  0  0  0  0  0
    6.2876  -46.6613  -19.8529 C   0  0  0  0  0  0  0  0  0  0  0  0
    7.1624  -47.6933  -20.4052 N   0  0  0  0  0  0  0  0  0  0  0  0
    6.5615  -48.6230  -19.4481 C   0  0  0  0  0  0  0  0  0  0  0  0
    8.1624  -47.5194  -20.1255 H   0  0  0  0  0  0  0  0  0  0  0  0
  1  2  2  0  0  0
  2  3  1  0  0  0
  3  4  1  0  0  0
  4  5  2  0  0  0
  5  6  1  0  0  0
  6  7  2  0  0  0
  7 19  1  0  0  0
 19 21  1  0  0  0
 21 22  2  0  0  0
 22 23  1  0  0  0
 23 24  2  0  0  0
 24 27  1  0  0  0
 27 29  1  0  0  0
 29 30  1  0  0  0
 30 31  1  0  0  0
 31 32  1  0  0  0
 32 33  1  0  0  0
 24 25  1  0  0  0
 25 26  2  0  0  0
  7  8  1  0  0  0
  8  9  2  0  0  0
  9 10  1  0  0  0
 10 14  1  0  0  0
 14 15  1  0  0  0
 15 16  1  0  0  0
 16 17  1  0  0  0
 17 18  1  0  0  0
 10 11  1  0  0  0
 11 12  1  0  0  0
 12 13  2  0  0  0
 13  1  1  0  0  0
 11  3  2  0  0  0
  9  4  1  0  0  0
 18 14  1  0  0  0
 26 21  1  0  0  0
 33 30  1  0  0  0
 19 20  1  0  0  0
 27 28  1  0  0  0
 32 34  1  0  0  0
M  END
> <minimizedAffinity>
-6.65297

> <CNNscore>
0.3535650074

> <CNNaffinity>
6.9105544090

> <CNN_VS>
2.4433302879

> <CNNaffinity_variance>
0.8778265715

$$$$
[H]Oc1c([H])c([H])c(C([H])([H])[C@@]2([H])C(=O)N(C([H])([H])c3c([H])c([H])c([H])c4c(C(=O)N([H])c5c([H])nc(N6C([H])([H])C([H])([H])C([H])(N7C([H])([H])C([H])([H])C7([H])[H])C([H])([H])C6([H])[H])c([H])c5[H])c([H])n(C([H])([H])[H])c34)C([H])([H])[C@]3([H])N(C(=O)N([H])C([H])([H])c4c([H])c([H])c([H])c([H])c4[H])N(C([H])([H])C([H])=C([H])[H])C([H])([H])C(=O)N23)c([H])c1[H]


 66 74  0  0  0  0  0  0  0  0999 V2000
    0.9745  -52.1406  -19.7030 N   0  0  0  0  0  0  0  0  0  0  0  0
    1.0753  -53.5387  -20.0813 C   0  0  0  0  0  0  0  0  0  0  0  0
    0.2113  -53.5971  -21.3297 C   0  0  0  0  0  0  0  0  0  0  0  0
   -0.6691  -54.4758  -21.3651 O   0  0  0  0  0  0  0  0  0  0  0  0
    0.4420  -52.6856  -22.3600 N   0  0  0  0  0  0  0  0  0  0  0  0
    0.0758  -52.9995  -23.7117 C   0  0  0  0  0  0  0  0  0  0  0  0
    1.4143  -53.2839  -24.3518 C   0  0  0  0  0  0  0  0  0  0  0  0
    1.5621  -54.2238  -25.1141 O   0  0  0  0  0  0  0  0  0  0  0  0
    2.4770  -52.4166  -24.0301 N   0  0  0  0  0  0  0  0  0  0  0  0
    2.3305  -51.3227  -23.0392 C   0  0  0  0  0  0  0  0  0  0  0  0
    1.1495  -51.4529  -22.1360 C   0  0  0  0  0  0  0  0  0  0  0  0
    1.3775  -51.2512  -20.7234 N   0  0  0  0  0  0  0  0  0  0  0  0
    2.0303  -50.0733  -20.2442 C   0  0  0  0  0  0  0  0  0  0  0  0
    2.2438  -50.0077  -18.9868 O   0  0  0  0  0  0  0  0  0  0  0  0
    2.4629  -48.9743  -20.9964 N   0  0  0  0  0  0  0  0  0  0  0  0
    2.3267  -48.9370  -22.0068 H   0  0  0  0  0  0  0  0  0  0  0  0
   -0.4251  -51.9738  -19.3412 C   0  0  0  0  0  0  0  0  0  0  0  0
   -1.5758  -52.8587  -17.3956 C   0  0  0  0  0  0  0  0  0  0  0  0
   -0.7009  -52.0473  -17.9264 C   0  0  0  0  0  0  0  0  0  0  0  0
   -0.6960  -52.0206  -24.4905 C   0  0  0  0  0  0  0  0  0  0  0  0
   -1.0145  -52.2998  -25.8930 C   0  0  0  0  0  0  0  0  0  0  0  0
    0.0048  -52.5523  -26.8130 C   0  0  0  0  0  0  0  0  0  0  0  0
   -0.2822  -52.7503  -28.1466 C   0  0  0  0  0  0  0  0  0  0  0  0
   -1.5693  -52.7097  -28.6446 C   0  0  0  0  0  0  0  0  0  0  0  0
   -1.7888  -52.9193  -29.9929 O   0  0  0  0  0  0  0  0  0  0  0  0
   -2.5703  -52.4612  -27.7476 C   0  0  0  0  0  0  0  0  0  0  0  0
   -2.2957  -52.2590  -26.3951 C   0  0  0  0  0  0  0  0  0  0  0  0
   -1.0378  -53.1052  -30.6486 H   0  0  0  0  0  0  0  0  0  0  0  0
    3.8207  -52.5234  -24.6012 C   0  0  0  0  0  0  0  0  0  0  0  0
    4.6897  -51.5176  -23.9824 C   0  0  0  0  0  0  0  0  0  0  0  0
    5.3625  -51.7661  -22.8146 C   0  0  0  0  0  0  0  0  0  0  0  0
    6.1397  -50.8036  -22.1937 C   0  0  0  0  0  0  0  0  0  0  0  0
    6.2551  -49.5447  -22.7543 C   0  0  0  0  0  0  0  0  0  0  0  0
    5.5732  -49.2801  -23.9488 C   0  0  0  0  0  0  0  0  0  0  0  0
    5.5154  -48.1726  -24.7268 C   0  0  0  0  0  0  0  0  0  0  0  0
    4.7192  -48.4809  -25.7924 C   0  0  0  0  0  0  0  0  0  0  0  0
    4.2704  -49.7459  -25.7106 N   0  0  0  0  0  0  0  0  0  0  0  0
    3.4100  -50.4137  -26.6554 C   0  0  0  0  0  0  0  0  0  0  0  0
    4.7958  -50.2562  -24.5603 C   0  0  0  0  0  0  0  0  0  0  0  0
    6.1405  -46.8214  -24.5179 C   0  0  0  0  0  0  0  0  0  0  0  0
    6.6783  -46.5608  -23.4206 O   0  0  0  0  0  0  0  0  0  0  0  0
    6.0756  -45.9358  -25.6092 N   0  0  0  0  0  0  0  0  0  0  0  0
    6.9919  -45.1456  -24.9447 H   0  0  0  0  0  0  0  0  0  0  0  0
    6.0252  -45.1015  -26.6108 C   0  0  0  0  0  0  0  0  0  0  0  0
    5.0536  -44.0795  -26.6315 C   0  0  0  0  0  0  0  0  0  0  0  0
    4.9242  -43.1820  -27.6252 C   0  0  0  0  0  0  0  0  0  0  0  0
    5.7842  -43.2597  -28.6967 C   0  0  0  0  0  0  0  0  0  0  0  0
    6.7424  -44.2126  -28.7509 N   0  0  0  0  0  0  0  0  0  0  0  0
    6.8683  -45.1066  -27.7431 C   0  0  0  0  0  0  0  0  0  0  0  0
    5.6680  -42.3717  -29.8124 N   0  0  0  0  0  0  0  0  0  0  0  0
    5.4270  -42.9281  -31.1208 C   0  0  0  0  0  0  0  0  0  0  0  0
    4.5154  -42.1550  -32.0006 C   0  0  0  0  0  0  0  0  0  0  0  0
    4.1568  -40.7918  -31.5240 C   0  0  0  0  0  0  0  0  0  0  0  0
    5.2687  -40.1295  -30.7167 C   0  0  0  0  0  0  0  0  0  0  0  0
    5.8209  -40.9564  -29.6231 C   0  0  0  0  0  0  0  0  0  0  0  0
    3.7737  -39.8643  -32.5284 N   0  0  0  0  0  0  0  0  0  0  0  0
    2.6882  -40.2295  -33.3807 C   0  0  0  0  0  0  0  0  0  0  0  0
    3.3163  -39.3592  -34.4507 C   0  0  0  0  0  0  0  0  0  0  0  0
    4.5945  -39.5917  -33.6475 C   0  0  0  0  0  0  0  0  0  0  0  0
    3.1151  -47.8308  -20.3646 C   0  0  0  0  0  0  0  0  0  0  0  0
    3.3289  -46.7256  -21.3698 C   0  0  0  0  0  0  0  0  0  0  0  0
    4.0781  -45.6457  -21.0378 C   0  0  0  0  0  0  0  0  0  0  0  0
    4.2353  -44.5971  -21.9787 C   0  0  0  0  0  0  0  0  0  0  0  0
    3.6188  -44.6914  -23.2258 C   0  0  0  0  0  0  0  0  0  0  0  0
    2.8628  -45.8576  -23.4595 C   0  0  0  0  0  0  0  0  0  0  0  0
    2.7119  -46.8471  -22.5882 C   0  0  0  0  0  0  0  0  0  0  0  0
 18 19  2  0  0  0
 19 17  1  0  0  0
 17  1  1  0  0  0
  1  2  1  0  0  0
  2  3  1  0  0  0
  3  4  2  0  0  0
  3  5  1  0  0  0
  5  6  1  0  0  0
  6 20  1  0  0  0
 20 21  1  0  0  0
 21 22  2  0  0  0
 22 23  1  0  0  0
 23 24  2  0  0  0
 24 25  1  0  0  0
 24 26  1  0  0  0
 26 27  2  0  0  0
  6  7  1  0  0  0
  7  8  2  0  0  0
  7  9  1  0  0  0
  9 29  1  0  0  0
 29 30  1  0  0  0
 30 31  2  0  0  0
 31 32  1  0  0  0
 32 33  2  0  0  0
 33 34  1  0  0  0
 34 35  1  0  0  0
 35 40  1  0  0  0
 40 41  2  0  0  0
 40 42  1  0  0  0
 42 44  1  0  0  0
 44 45  2  0  0  0
 45 46  1  0  0  0
 46 47  2  0  0  0
 47 50  1  0  0  0
 50 51  1  0  0  0
 51 52  1  0  0  0
 52 53  1  0  0  0
 53 56  1  0  0  0
 56 57  1  0  0  0
 57 58  1  0  0  0
 58 59  1  0  0  0
 53 54  1  0  0  0
 54 55  1  0  0  0
 47 48  1  0  0  0
 48 49  2  0  0  0
 35 36  2  0  0  0
 36 37  1  0  0  0
 37 38  1  0  0  0
 37 39  1  0  0  0
  9 10  1  0  0  0
 10 11  1  0  0  0
 11 12  1  0  0  0
 12 13  1  0  0  0
 13 14  2  0  0  0
 13 15  1  0  0  0
 15 60  1  0  0  0
 60 61  1  0  0  0
 61 62  2  0  0  0
 62 63  1  0  0  0
 63 64  2  0  0  0
 64 65  1  0  0  0
 65 66  2  0  0  0
 12  1  1  0  0  0
 66 61  1  0  0  0
 11  5  1  0  0  0
 27 21  1  0  0  0
 39 30  1  0  0  0
 39 34  2  0  0  0
 49 44  1  0  0  0
 55 50  1  0  0  0
 59 56  1  0  0  0
 25 28  1  0  0  0
 42 43  1  0  0  0
 15 16  1  0  0  0
M  END
> <minimizedAffinity>
-8.22994

> <CNNscore>
0.2045745105

> <CNNaffinity>
7.8552880287

> <CNN_VS>
1.6069916487

> <CNNaffinity_variance>
0.3183814883

$$$$
[H]Oc1c([H])c([H])c(C([H])([H])[C@@]2([H])C(=O)N(C([H])([H])c3c([H])c([H])c([H])c4c(C(=O)N([H])c5c([H])nc(N6C([H])([H])C([H])([H])C([H])(N7C([H])([H])C([H])([H])C7([H])[H])C([H])([H])C6([H])[H])c([H])c5[H])c([H])n(C([H])([H])[H])c34)C([H])([H])[C@]3([H])N(C(=O)N([H])C([H])([H])c4c([H])c([H])c([H])c([H])c4[H])N(C([H])([H])C([H])=C([H])[H])C([H])([H])C(=O)N23)c([H])c1[H]


 66 74  0  0  0  0  0  0  0  0999 V2000
    4.1153  -46.4729  -17.5180 N   0  0  0  0  0  0  0  0  0  0  0  0
    4.5179  -47.6884  -16.8335 C   0  0  0  0  0  0  0  0  0  0  0  0
    3.3514  -48.6193  -17.1186 C   0  0  0  0  0  0  0  0  0  0  0  0
    2.8335  -49.1892  -16.1411 O   0  0  0  0  0  0  0  0  0  0  0  0
    2.9259  -48.7933  -18.4354 N   0  0  0  0  0  0  0  0  0  0  0  0
    2.2476  -49.9936  -18.8338 C   0  0  0  0  0  0  0  0  0  0  0  0
    3.3126  -50.7212  -19.6203 C   0  0  0  0  0  0  0  0  0  0  0  0
    3.4846  -51.9210  -19.4892 O   0  0  0  0  0  0  0  0  0  0  0  0
    4.0918  -49.9536  -20.5083 N   0  0  0  0  0  0  0  0  0  0  0  0
    3.9488  -48.4810  -20.6129 C   0  0  0  0  0  0  0  0  0  0  0  0
    3.2420  -47.8396  -19.4655 C   0  0  0  0  0  0  0  0  0  0  0  0
    3.8530  -46.6620  -18.8929 N   0  0  0  0  0  0  0  0  0  0  0  0
    4.2230  -45.5519  -19.7138 C   0  0  0  0  0  0  0  0  0  0  0  0
    4.8121  -44.5798  -19.1316 O   0  0  0  0  0  0  0  0  0  0  0  0
    4.0108  -45.4030  -21.0898 N   0  0  0  0  0  0  0  0  0  0  0  0
    3.5405  -46.1259  -21.6349 H   0  0  0  0  0  0  0  0  0  0  0  0
    2.9400  -46.0283  -16.7841 C   0  0  0  0  0  0  0  0  0  0  0  0
    2.5592  -43.7758  -15.9633 C   0  0  0  0  0  0  0  0  0  0  0  0
    3.1682  -44.9279  -15.8784 C   0  0  0  0  0  0  0  0  0  0  0  0
    0.9939  -49.8894  -19.5941 C   0  0  0  0  0  0  0  0  0  0  0  0
    0.3036  -51.1083  -20.0233 C   0  0  0  0  0  0  0  0  0  0  0  0
   -0.0731  -51.2752  -21.3572 C   0  0  0  0  0  0  0  0  0  0  0  0
   -0.7811  -52.3888  -21.7558 C   0  0  0  0  0  0  0  0  0  0  0  0
   -1.1553  -53.3862  -20.8776 C   0  0  0  0  0  0  0  0  0  0  0  0
   -1.8625  -54.4786  -21.3429 O   0  0  0  0  0  0  0  0  0  0  0  0
   -0.7898  -53.2261  -19.5702 C   0  0  0  0  0  0  0  0  0  0  0  0
   -0.0733  -52.1050  -19.1517 C   0  0  0  0  0  0  0  0  0  0  0  0
   -2.1261  -54.5874  -22.3162 H   0  0  0  0  0  0  0  0  0  0  0  0
    5.1286  -50.5119  -21.3780 C   0  0  0  0  0  0  0  0  0  0  0  0
    5.3971  -49.5743  -22.4728 C   0  0  0  0  0  0  0  0  0  0  0  0
    6.3743  -48.6181  -22.3799 C   0  0  0  0  0  0  0  0  0  0  0  0
    6.5966  -47.6927  -23.3852 C   0  0  0  0  0  0  0  0  0  0  0  0
    5.8192  -47.7178  -24.5285 C   0  0  0  0  0  0  0  0  0  0  0  0
    4.8185  -48.6921  -24.6350 C   0  0  0  0  0  0  0  0  0  0  0  0
    3.9345  -48.9713  -25.6227 C   0  0  0  0  0  0  0  0  0  0  0  0
    3.2057  -50.0484  -25.2062 C   0  0  0  0  0  0  0  0  0  0  0  0
    3.5992  -50.4559  -23.9867 N   0  0  0  0  0  0  0  0  0  0  0  0
    3.0577  -51.5610  -23.2354 C   0  0  0  0  0  0  0  0  0  0  0  0
    4.6063  -49.6141  -23.6171 C   0  0  0  0  0  0  0  0  0  0  0  0
    3.7068  -48.2679  -26.9316 C   0  0  0  0  0  0  0  0  0  0  0  0
    2.5876  -47.7650  -27.1677 O   0  0  0  0  0  0  0  0  0  0  0  0
    4.8067  -48.2230  -27.8080 N   0  0  0  0  0  0  0  0  0  0  0  0
    4.1060  -47.2877  -28.5427 H   0  0  0  0  0  0  0  0  0  0  0  0
    5.8158  -48.1714  -28.6330 C   0  0  0  0  0  0  0  0  0  0  0  0
    5.5901  -48.0372  -30.0186 C   0  0  0  0  0  0  0  0  0  0  0  0
    6.5684  -47.9834  -30.9403 C   0  0  0  0  0  0  0  0  0  0  0  0
    7.8751  -48.0698  -30.5172 C   0  0  0  0  0  0  0  0  0  0  0  0
    8.1732  -48.2010  -29.2046 N   0  0  0  0  0  0  0  0  0  0  0  0
    7.1818  -48.2476  -28.2849 C   0  0  0  0  0  0  0  0  0  0  0  0
    8.9619  -48.0738  -31.4477 N   0  0  0  0  0  0  0  0  0  0  0  0
    8.6778  -48.2784  -32.8466 C   0  0  0  0  0  0  0  0  0  0  0  0
    9.4962  -47.4895  -33.8007 C   0  0  0  0  0  0  0  0  0  0  0  0
   10.6623  -46.7735  -33.2161 C   0  0  0  0  0  0  0  0  0  0  0  0
   11.2740  -47.5019  -32.0237 C   0  0  0  0  0  0  0  0  0  0  0  0
   10.3091  -47.9060  -30.9795 C   0  0  0  0  0  0  0  0  0  0  0  0
   11.7274  -46.4887  -34.1106 N   0  0  0  0  0  0  0  0  0  0  0  0
   11.6793  -45.2486  -34.8162 C   0  0  0  0  0  0  0  0  0  0  0  0
   12.4704  -45.9178  -35.9221 C   0  0  0  0  0  0  0  0  0  0  0  0
   11.8987  -47.2002  -35.3209 C   0  0  0  0  0  0  0  0  0  0  0  0
    4.4420  -44.2017  -21.7993 C   0  0  0  0  0  0  0  0  0  0  0  0
    4.3336  -44.4043  -23.2909 C   0  0  0  0  0  0  0  0  0  0  0  0
    5.3440  -44.0065  -24.1023 C   0  0  0  0  0  0  0  0  0  0  0  0
    5.2092  -44.1661  -25.5043 C   0  0  0  0  0  0  0  0  0  0  0  0
    4.0437  -44.7266  -26.0257 C   0  0  0  0  0  0  0  0  0  0  0  0
    3.0599  -45.1005  -25.0884 C   0  0  0  0  0  0  0  0  0  0  0  0
    3.1767  -44.9596  -23.7740 C   0  0  0  0  0  0  0  0  0  0  0  0
 18 19  2  0  0  0
 19 17  1  0  0  0
 17  1  1  0  0  0
  1  2  1  0  0  0
  2  3  1  0  0  0
  3  4  2  0  0  0
  3  5  1  0  0  0
  5  6  1  0  0  0
  6 20  1  0  0  0
 20 21  1  0  0  0
 21 22  2  0  0  0
 22 23  1  0  0  0
 23 24  2  0  0  0
 24 25  1  0  0  0
 24 26  1  0  0  0
 26 27  2  0  0  0
  6  7  1  0  0  0
  7  8  2  0  0  0
  7  9  1  0  0  0
  9 29  1  0  0  0
 29 30  1  0  0  0
 30 31  2  0  0  0
 31 32  1  0  0  0
 32 33  2  0  0  0
 33 34  1  0  0  0
 34 35  1  0  0  0
 35 40  1  0  0  0
 40 41  2  0  0  0
 40 42  1  0  0  0
 42 44  1  0  0  0
 44 45  2  0  0  0
 45 46  1  0  0  0
 46 47  2  0  0  0
 47 50  1  0  0  0
 50 51  1  0  0  0
 51 52  1  0  0  0
 52 53  1  0  0  0
 53 56  1  0  0  0
 56 57  1  0  0  0
 57 58  1  0  0  0
 58 59  1  0  0  0
 53 54  1  0  0  0
 54 55  1  0  0  0
 47 48  1  0  0  0
 48 49  2  0  0  0
 35 36  2  0  0  0
 36 37  1  0  0  0
 37 38  1  0  0  0
 37 39  1  0  0  0
  9 10  1  0  0  0
 10 11  1  0  0  0
 11 12  1  0  0  0
 12 13  1  0  0  0
 13 14  2  0  0  0
 13 15  1  0  0  0
 15 60  1  0  0  0
 60 61  1  0  0  0
 61 62  2  0  0  0
 62 63  1  0  0  0
 63 64  2  0  0  0
 64 65  1  0  0  0
 65 66  2  0  0  0
 12  1  1  0  0  0
 66 61  1  0  0  0
 11  5  1  0  0  0
 27 21  1  0  0  0
 39 30  1  0  0  0
 39 34  2  0  0  0
 49 44  1  0  0  0
 55 50  1  0  0  0
 59 56  1  0  0  0
 25 28  1  0  0  0
 42 43  1  0  0  0
 15 16  1  0  0  0
M  END
> <minimizedAffinity>
-8.32456

> <CNNscore>
0.0959252194

> <CNNaffinity>
7.2174706459

> <CNN_VS>
0.6923374534

> <CNNaffinity_variance>
0.2436283380

$$$$
[H]Oc1c([H])c([H])c(C([H])([H])[C@@]2([H])C(=O)N(C([H])([H])c3c([H])c([H])c([H])c4c(C(=O)N([H])c5c([H])nc(N6C([H])([H])C([H])([H])C([H])(N7C([H])([H])C([H])([H])C7([H])[H])C([H])([H])C6([H])[H])c([H])c5[H])c([H])n(C([H])([H])[H])c34)C([H])([H])[C@]3([H])N(C(=O)N([H])C([H])([H])c4c([H])c([H])c([H])c([H])c4[H])N(C([H])([H])C([H])=C([H])[H])C([H])([H])C(=O)N23)c([H])c1[H]


 66 74  0  0  0  0  0  0  0  0999 V2000
    5.4590  -50.8251  -22.4901 N   0  0  0  0  0  0  0  0  0  0  0  0
    5.8710  -51.6898  -23.5811 C   0  0  0  0  0  0  0  0  0  0  0  0
    4.5397  -52.1962  -24.1102 C   0  0  0  0  0  0  0  0  0  0  0  0
    4.4157  -53.4278  -24.2377 O   0  0  0  0  0  0  0  0  0  0  0  0
    3.5395  -51.2771  -24.4269 N   0  0  0  0  0  0  0  0  0  0  0  0
    2.5262  -51.5998  -25.3905 C   0  0  0  0  0  0  0  0  0  0  0  0
    2.9476  -50.7826  -26.5892 C   0  0  0  0  0  0  0  0  0  0  0  0
    2.9123  -51.2494  -27.7149 O   0  0  0  0  0  0  0  0  0  0  0  0
    3.3791  -49.4635  -26.3472 N   0  0  0  0  0  0  0  0  0  0  0  0
    3.5072  -48.9141  -24.9754 C   0  0  0  0  0  0  0  0  0  0  0  0
    3.5424  -49.9409  -23.8928 C   0  0  0  0  0  0  0  0  0  0  0  0
    4.5714  -49.8011  -22.8880 N   0  0  0  0  0  0  0  0  0  0  0  0
    4.7474  -48.5713  -22.1812 C   0  0  0  0  0  0  0  0  0  0  0  0
    5.7200  -48.5192  -21.3551 O   0  0  0  0  0  0  0  0  0  0  0  0
    3.9714  -47.4105  -22.2867 N   0  0  0  0  0  0  0  0  0  0  0  0
    3.1696  -47.3643  -22.9159 H   0  0  0  0  0  0  0  0  0  0  0  0
    4.8605  -51.7357  -21.5257 C   0  0  0  0  0  0  0  0  0  0  0  0
    2.9788  -51.6781  -19.9932 C   0  0  0  0  0  0  0  0  0  0  0  0
    4.0210  -51.1067  -20.5343 C   0  0  0  0  0  0  0  0  0  0  0  0
    1.1148  -51.3686  -25.0509 C   0  0  0  0  0  0  0  0  0  0  0  0
    0.4731  -52.1913  -24.0226 C   0  0  0  0  0  0  0  0  0  0  0  0
   -0.1567  -53.3889  -24.3662 C   0  0  0  0  0  0  0  0  0  0  0  0
   -0.8196  -54.1351  -23.4154 C   0  0  0  0  0  0  0  0  0  0  0  0
   -0.9015  -53.7504  -22.0920 C   0  0  0  0  0  0  0  0  0  0  0  0
   -1.5797  -54.5462  -21.1882 O   0  0  0  0  0  0  0  0  0  0  0  0
   -0.2876  -52.5776  -21.7513 C   0  0  0  0  0  0  0  0  0  0  0  0
    0.3871  -51.8118  -22.7020 C   0  0  0  0  0  0  0  0  0  0  0  0
   -2.0295  -55.4159  -21.4526 H   0  0  0  0  0  0  0  0  0  0  0  0
    3.7729  -48.5261  -27.4004 C   0  0  0  0  0  0  0  0  0  0  0  0
    3.7194  -47.1585  -26.8746 C   0  0  0  0  0  0  0  0  0  0  0  0
    2.5425  -46.4605  -26.7990 C   0  0  0  0  0  0  0  0  0  0  0  0
    2.4911  -45.1496  -26.3573 C   0  0  0  0  0  0  0  0  0  0  0  0
    3.6536  -44.5060  -25.9742 C   0  0  0  0  0  0  0  0  0  0  0  0
    4.8621  -45.2104  -26.0456 C   0  0  0  0  0  0  0  0  0  0  0  0
    6.1302  -44.8587  -25.7241 C   0  0  0  0  0  0  0  0  0  0  0  0
    6.9154  -45.9486  -25.9691 C   0  0  0  0  0  0  0  0  0  0  0  0
    6.1845  -46.9756  -26.4373 N   0  0  0  0  0  0  0  0  0  0  0  0
    6.6748  -48.2815  -26.8021 C   0  0  0  0  0  0  0  0  0  0  0  0
    4.8983  -46.5259  -26.4920 C   0  0  0  0  0  0  0  0  0  0  0  0
    6.6626  -43.5441  -25.2257 C   0  0  0  0  0  0  0  0  0  0  0  0
    7.0619  -42.6949  -26.0508 O   0  0  0  0  0  0  0  0  0  0  0  0
    6.6605  -43.3664  -23.8299 N   0  0  0  0  0  0  0  0  0  0  0  0
    6.9185  -42.0300  -24.0605 H   0  0  0  0  0  0  0  0  0  0  0  0
    6.6658  -43.1840  -22.5383 C   0  0  0  0  0  0  0  0  0  0  0  0
    7.7637  -43.6191  -21.7673 C   0  0  0  0  0  0  0  0  0  0  0  0
    7.8502  -43.4793  -20.4322 C   0  0  0  0  0  0  0  0  0  0  0  0
    6.8056  -42.8811  -19.7652 C   0  0  0  0  0  0  0  0  0  0  0  0
    5.7168  -42.4381  -20.4341 N   0  0  0  0  0  0  0  0  0  0  0  0
    5.6425  -42.5777  -21.7779 C   0  0  0  0  0  0  0  0  0  0  0  0
    6.8079  -42.7493  -18.3406 N   0  0  0  0  0  0  0  0  0  0  0  0
    5.9702  -41.7439  -17.7347 C   0  0  0  0  0  0  0  0  0  0  0  0
    5.3224  -42.1201  -16.4535 C   0  0  0  0  0  0  0  0  0  0  0  0
    5.8020  -43.3840  -15.8317 C   0  0  0  0  0  0  0  0  0  0  0  0
    7.2727  -43.6699  -16.1177 C   0  0  0  0  0  0  0  0  0  0  0  0
    7.6566  -43.5893  -17.5428 C   0  0  0  0  0  0  0  0  0  0  0  0
    5.6321  -43.4872  -14.4259 N   0  0  0  0  0  0  0  0  0  0  0  0
    5.9049  -42.3245  -13.6438 C   0  0  0  0  0  0  0  0  0  0  0  0
    6.2641  -43.2528  -12.5010 C   0  0  0  0  0  0  0  0  0  0  0  0
    6.4998  -44.2629  -13.6222 C   0  0  0  0  0  0  0  0  0  0  0  0
    4.2696  -46.2226  -21.4915 C   0  0  0  0  0  0  0  0  0  0  0  0
    4.1119  -46.5210  -20.0206 C   0  0  0  0  0  0  0  0  0  0  0  0
    3.0771  -47.2852  -19.5931 C   0  0  0  0  0  0  0  0  0  0  0  0
    2.9194  -47.5220  -18.2044 C   0  0  0  0  0  0  0  0  0  0  0  0
    3.8267  -46.9669  -17.3028 C   0  0  0  0  0  0  0  0  0  0  0  0
    4.8606  -46.1883  -17.8604 C   0  0  0  0  0  0  0  0  0  0  0  0
    5.0204  -45.9630  -19.1583 C   0  0  0  0  0  0  0  0  0  0  0  0
 18 19  2  0  0  0
 19 17  1  0  0  0
 17  1  1  0  0  0
  1  2  1  0  0  0
  2  3  1  0  0  0
  3  4  2  0  0  0
  3  5  1  0  0  0
  5  6  1  0  0  0
  6 20  1  0  0  0
 20 21  1  0  0  0
 21 22  2  0  0  0
 22 23  1  0  0  0
 23 24  2  0  0  0
 24 25  1  0  0  0
 24 26  1  0  0  0
 26 27  2  0  0  0
  6  7  1  0  0  0
  7  8  2  0  0  0
  7  9  1  0  0  0
  9 29  1  0  0  0
 29 30  1  0  0  0
 30 31  2  0  0  0
 31 32  1  0  0  0
 32 33  2  0  0  0
 33 34  1  0  0  0
 34 35  1  0  0  0
 35 40  1  0  0  0
 40 41  2  0  0  0
 40 42  1  0  0  0
 42 44  1  0  0  0
 44 45  2  0  0  0
 45 46  1  0  0  0
 46 47  2  0  0  0
 47 50  1  0  0  0
 50 51  1  0  0  0
 51 52  1  0  0  0
 52 53  1  0  0  0
 53 56  1  0  0  0
 56 57  1  0  0  0
 57 58  1  0  0  0
 58 59  1  0  0  0
 53 54  1  0  0  0
 54 55  1  0  0  0
 47 48  1  0  0  0
 48 49  2  0  0  0
 35 36  2  0  0  0
 36 37  1  0  0  0
 37 38  1  0  0  0
 37 39  1  0  0  0
  9 10  1  0  0  0
 10 11  1  0  0  0
 11 12  1  0  0  0
 12 13  1  0  0  0
 13 14  2  0  0  0
 13 15  1  0  0  0
 15 60  1  0  0  0
 60 61  1  0  0  0
 61 62  2  0  0  0
 62 63  1  0  0  0
 63 64  2  0  0  0
 64 65  1  0  0  0
 65 66  2  0  0  0
 12  1  1  0  0  0
 66 61  1  0  0  0
 11  5  1  0  0  0
 27 21  1  0  0  0
 39 30  1  0  0  0
 39 34  2  0  0  0
 49 44  1  0  0  0
 55 50  1  0  0  0
 59 56  1  0  0  0
 25 28  1  0  0  0
 42 43  1  0  0  0
 15 16  1  0  0  0
M  END
> <minimizedAffinity>
-6.94915

> <CNNscore>
0.0530098677

> <CNNaffinity>
7.3261237144

> <CNN_VS>
0.3883568347

> <CNNaffinity_variance>
0.5566729307

$$$$
[H]Oc1c([H])c([H])c(C([H])([H])[C@@]2([H])C(=O)N(C([H])([H])c3c([H])c([H])c([H])c4c(C(=O)N([H])c5c([H])nc(N6C([H])([H])C([H])([H])C([H])(N7C([H])([H])C([H])([H])C7([H])[H])C([H])([H])C6([H])[H])c([H])c5[H])c([H])n(C([H])([H])[H])c34)C([H])([H])[C@]3([H])N(C(=O)N([H])C([H])([H])c4c([H])c([H])c([H])c([H])c4[H])N(C([H])([H])C([H])=C([H])[H])C([H])([H])C(=O)N23)c([H])c1[H]


 66 74  0  0  0  0  0  0  0  0999 V2000
    1.0182  -53.1078  -25.6559 N   0  0  0  0  0  0  0  0  0  0  0  0
    2.2248  -53.2729  -26.4464 C   0  0  0  0  0  0  0  0  0  0  0  0
    2.6954  -51.8384  -26.6181 C   0  0  0  0  0  0  0  0  0  0  0  0
    2.9427  -51.4616  -27.7779 O   0  0  0  0  0  0  0  0  0  0  0  0
    2.8307  -51.0274  -25.4915 N   0  0  0  0  0  0  0  0  0  0  0  0
    3.7382  -49.9156  -25.4936 C   0  0  0  0  0  0  0  0  0  0  0  0
    4.8732  -50.4228  -24.6354 C   0  0  0  0  0  0  0  0  0  0  0  0
    6.0356  -50.2288  -24.9476 O   0  0  0  0  0  0  0  0  0  0  0  0
    4.5280  -51.1246  -23.4636 N   0  0  0  0  0  0  0  0  0  0  0  0
    3.1203  -51.4403  -23.1185 C   0  0  0  0  0  0  0  0  0  0  0  0
    2.1595  -51.3306  -24.2553 C   0  0  0  0  0  0  0  0  0  0  0  0
    1.2320  -52.4232  -24.4392 N   0  0  0  0  0  0  0  0  0  0  0  0
    0.4149  -52.8843  -23.3608 C   0  0  0  0  0  0  0  0  0  0  0  0
   -0.3308  -53.8936  -23.5977 O   0  0  0  0  0  0  0  0  0  0  0  0
    0.3334  -52.3534  -22.0677 N   0  0  0  0  0  0  0  0  0  0  0  0
    0.8872  -51.5422  -21.7918 H   0  0  0  0  0  0  0  0  0  0  0  0
    0.1110  -52.3950  -26.5427 C   0  0  0  0  0  0  0  0  0  0  0  0
   -0.5399  -52.8631  -28.8339 C   0  0  0  0  0  0  0  0  0  0  0  0
   -0.4929  -53.2041  -27.5741 C   0  0  0  0  0  0  0  0  0  0  0  0
    3.2630  -48.6020  -25.0361 C   0  0  0  0  0  0  0  0  0  0  0  0
    3.3175  -47.4549  -25.9457 C   0  0  0  0  0  0  0  0  0  0  0  0
    3.4727  -47.6484  -27.3196 C   0  0  0  0  0  0  0  0  0  0  0  0
    3.5913  -46.5734  -28.1742 C   0  0  0  0  0  0  0  0  0  0  0  0
    3.5666  -45.2656  -27.7324 C   0  0  0  0  0  0  0  0  0  0  0  0
    3.6881  -44.2328  -28.6426 O   0  0  0  0  0  0  0  0  0  0  0  0
    3.4162  -45.0714  -26.3877 C   0  0  0  0  0  0  0  0  0  0  0  0
    3.2948  -46.1490  -25.5105 C   0  0  0  0  0  0  0  0  0  0  0  0
    3.7969  -44.3894  -29.6387 H   0  0  0  0  0  0  0  0  0  0  0  0
    5.5039  -51.6375  -22.5004 C   0  0  0  0  0  0  0  0  0  0  0  0
    6.2808  -50.5187  -21.9578 C   0  0  0  0  0  0  0  0  0  0  0  0
    7.4693  -50.1278  -22.5170 C   0  0  0  0  0  0  0  0  0  0  0  0
    8.2370  -49.1100  -21.9776 C   0  0  0  0  0  0  0  0  0  0  0  0
    7.8079  -48.4532  -20.8389 C   0  0  0  0  0  0  0  0  0  0  0  0
    6.5936  -48.8433  -20.2599 C   0  0  0  0  0  0  0  0  0  0  0  0
    5.9210  -48.3799  -19.1791 C   0  0  0  0  0  0  0  0  0  0  0  0
    4.7719  -49.1118  -19.0868 C   0  0  0  0  0  0  0  0  0  0  0  0
    4.6990  -50.0237  -20.0724 N   0  0  0  0  0  0  0  0  0  0  0  0
    3.6311  -50.9674  -20.2908 C   0  0  0  0  0  0  0  0  0  0  0  0
    5.8340  -49.8675  -20.8121 C   0  0  0  0  0  0  0  0  0  0  0  0
    6.3044  -47.3051  -18.2005 C   0  0  0  0  0  0  0  0  0  0  0  0
    7.4906  -47.2242  -17.8164 O   0  0  0  0  0  0  0  0  0  0  0  0
    5.2686  -46.4457  -17.7903 N   0  0  0  0  0  0  0  0  0  0  0  0
    6.2420  -45.6291  -17.2503 H   0  0  0  0  0  0  0  0  0  0  0  0
    4.3209  -45.6392  -17.3990 C   0  0  0  0  0  0  0  0  0  0  0  0
    3.5311  -45.9677  -16.2777 C   0  0  0  0  0  0  0  0  0  0  0  0
    2.5300  -45.2006  -15.8097 C   0  0  0  0  0  0  0  0  0  0  0  0
    2.2457  -44.0222  -16.4611 C   0  0  0  0  0  0  0  0  0  0  0  0
    2.9575  -43.6380  -17.5449 N   0  0  0  0  0  0  0  0  0  0  0  0
    3.9667  -44.4137  -18.0038 C   0  0  0  0  0  0  0  0  0  0  0  0
    1.1603  -43.1856  -16.0499 N   0  0  0  0  0  0  0  0  0  0  0  0
    0.2228  -42.7252  -17.0442 C   0  0  0  0  0  0  0  0  0  0  0  0
   -1.1975  -42.6561  -16.6193 C   0  0  0  0  0  0  0  0  0  0  0  0
   -1.4474  -42.8350  -15.1634 C   0  0  0  0  0  0  0  0  0  0  0  0
   -0.3086  -42.3132  -14.2932 C   0  0  0  0  0  0  0  0  0  0  0  0
    1.0361  -42.7946  -14.6736 C   0  0  0  0  0  0  0  0  0  0  0  0
   -2.6424  -42.2539  -14.6632 N   0  0  0  0  0  0  0  0  0  0  0  0
   -3.2026  -42.8199  -13.4783 C   0  0  0  0  0  0  0  0  0  0  0  0
   -4.5588  -42.3586  -13.9730 C   0  0  0  0  0  0  0  0  0  0  0  0
   -3.8777  -42.3834  -15.3399 C   0  0  0  0  0  0  0  0  0  0  0  0
   -0.5569  -52.9306  -21.0644 C   0  0  0  0  0  0  0  0  0  0  0  0
   -0.3361  -52.2726  -19.7243 C   0  0  0  0  0  0  0  0  0  0  0  0
   -0.8097  -52.8585  -18.5974 C   0  0  0  0  0  0  0  0  0  0  0  0
   -0.6302  -52.2074  -17.3511 C   0  0  0  0  0  0  0  0  0  0  0  0
    0.0274  -50.9787  -17.3034 C   0  0  0  0  0  0  0  0  0  0  0  0
    0.4742  -50.4639  -18.5369 C   0  0  0  0  0  0  0  0  0  0  0  0
    0.3153  -51.0661  -19.7087 C   0  0  0  0  0  0  0  0  0  0  0  0
 18 19  2  0  0  0
 19 17  1  0  0  0
 17  1  1  0  0  0
  1  2  1  0  0  0
  2  3  1  0  0  0
  3  4  2  0  0  0
  3  5  1  0  0  0
  5  6  1  0  0  0
  6 20  1  0  0  0
 20 21  1  0  0  0
 21 22  2  0  0  0
 22 23  1  0  0  0
 23 24  2  0  0  0
 24 25  1  0  0  0
 24 26  1  0  0  0
 26 27  2  0  0  0
  6  7  1  0  0  0
  7  8  2  0  0  0
  7  9  1  0  0  0
  9 29  1  0  0  0
 29 30  1  0  0  0
 30 31  2  0  0  0
 31 32  1  0  0  0
 32 33  2  0  0  0
 33 34  1  0  0  0
 34 35  1  0  0  0
 35 40  1  0  0  0
 40 41  2  0  0  0
 40 42  1  0  0  0
 42 44  1  0  0  0
 44 45  2  0  0  0
 45 46  1  0  0  0
 46 47  2  0  0  0
 47 50  1  0  0  0
 50 51  1  0  0  0
 51 52  1  0  0  0
 52 53  1  0  0  0
 53 56  1  0  0  0
 56 57  1  0  0  0
 57 58  1  0  0  0
 58 59  1  0  0  0
 53 54  1  0  0  0
 54 55  1  0  0  0
 47 48  1  0  0  0
 48 49  2  0  0  0
 35 36  2  0  0  0
 36 37  1  0  0  0
 37 38  1  0  0  0
 37 39  1  0  0  0
  9 10  1  0  0  0
 10 11  1  0  0  0
 11 12  1  0  0  0
 12 13  1  0  0  0
 13 14  2  0  0  0
 13 15  1  0  0  0
 15 60  1  0  0  0
 60 61  1  0  0  0
 61 62  2  0  0  0
 62 63  1  0  0  0
 63 64  2  0  0  0
 64 65  1  0  0  0
 65 66  2  0  0  0
 12  1  1  0  0  0
 66 61  1  0  0  0
 11  5  1  0  0  0
 27 21  1  0  0  0
 39 30  1  0  0  0
 39 34  2  0  0  0
 49 44  1  0  0  0
 55 50  1  0  0  0
 59 56  1  0  0  0
 25 28  1  0  0  0
 42 43  1  0  0  0
 15 16  1  0  0  0
M  END
> <minimizedAffinity>
-9.31412

> <CNNscore>
0.0350051373

> <CNNaffinity>
7.5321149826

> <CNN_VS>
0.2636627257

> <CNNaffinity_variance>
0.3251415193

$$$$
[H]Oc1c([H])c([H])c(C([H])([H])[C@@]2([H])C(=O)N(C([H])([H])c3c([H])c([H])c([H])c4c(C(=O)N([H])c5c([H])nc(N6C([H])([H])C([H])([H])C([H])(N7C([H])([H])C([H])([H])C7([H])[H])C([H])([H])C6([H])[H])c([H])c5[H])c([H])n(C([H])([H])[H])c34)C([H])([H])[C@]3([H])N(C(=O)N([H])C([H])([H])c4c([H])c([H])c([H])c([H])c4[H])N(C([H])([H])C([H])=C([H])[H])C([H])([H])C(=O)N23)c([H])c1[H]


 66 74  0  0  0  0  0  0  0  0999 V2000
    0.9888  -53.1140  -26.0739 N   0  0  0  0  0  0  0  0  0  0  0  0
    2.2460  -53.2308  -26.7907 C   0  0  0  0  0  0  0  0  0  0  0  0
    2.7050  -51.7847  -26.8725 C   0  0  0  0  0  0  0  0  0  0  0  0
    3.0206  -51.3565  -27.9975 O   0  0  0  0  0  0  0  0  0  0  0  0
    2.7555  -51.0200  -25.7071 N   0  0  0  0  0  0  0  0  0  0  0  0
    3.6444  -49.8980  -25.6049 C   0  0  0  0  0  0  0  0  0  0  0  0
    4.7295  -50.4266  -24.6965 C   0  0  0  0  0  0  0  0  0  0  0  0
    5.9065  -50.2054  -24.9246 O   0  0  0  0  0  0  0  0  0  0  0  0
    4.3204  -51.1812  -23.5793 N   0  0  0  0  0  0  0  0  0  0  0  0
    2.8984  -51.5284  -23.3393 C   0  0  0  0  0  0  0  0  0  0  0  0
    2.0110  -51.3831  -24.5305 C   0  0  0  0  0  0  0  0  0  0  0  0
    1.1137  -52.4784  -24.8188 N   0  0  0  0  0  0  0  0  0  0  0  0
    0.2362  -52.9944  -23.8154 C   0  0  0  0  0  0  0  0  0  0  0  0
   -0.4775  -54.0021  -24.1414 O   0  0  0  0  0  0  0  0  0  0  0  0
    0.0638  -52.5192  -22.5096 N   0  0  0  0  0  0  0  0  0  0  0  0
    0.5865  -51.7135  -22.1654 H   0  0  0  0  0  0  0  0  0  0  0  0
    0.1298  -52.3759  -26.9875 C   0  0  0  0  0  0  0  0  0  0  0  0
   -0.3942  -52.7989  -29.3197 C   0  0  0  0  0  0  0  0  0  0  0  0
   -0.4279  -53.1583  -28.0646 C   0  0  0  0  0  0  0  0  0  0  0  0
    3.1211  -48.6107  -25.1256 C   0  0  0  0  0  0  0  0  0  0  0  0
    3.9073  -47.8167  -24.1781 C   0  0  0  0  0  0  0  0  0  0  0  0
    3.5696  -47.7936  -22.8237 C   0  0  0  0  0  0  0  0  0  0  0  0
    4.2633  -46.9976  -21.9375 C   0  0  0  0  0  0  0  0  0  0  0  0
    5.3121  -46.1890  -22.3277 C   0  0  0  0  0  0  0  0  0  0  0  0
    5.9678  -45.4166  -21.3877 O   0  0  0  0  0  0  0  0  0  0  0  0
    5.6452  -46.2073  -23.6533 C   0  0  0  0  0  0  0  0  0  0  0  0
    4.9529  -47.0076  -24.5619 C   0  0  0  0  0  0  0  0  0  0  0  0
    5.7128  -45.4131  -20.4061 H   0  0  0  0  0  0  0  0  0  0  0  0
    5.2401  -51.7219  -22.5768 C   0  0  0  0  0  0  0  0  0  0  0  0
    5.0753  -50.9824  -21.3216 C   0  0  0  0  0  0  0  0  0  0  0  0
    3.9705  -51.1467  -20.5275 C   0  0  0  0  0  0  0  0  0  0  0  0
    3.7799  -50.4113  -19.3703 C   0  0  0  0  0  0  0  0  0  0  0  0
    4.7234  -49.4768  -18.9849 C   0  0  0  0  0  0  0  0  0  0  0  0
    5.8576  -49.3018  -19.7881 C   0  0  0  0  0  0  0  0  0  0  0  0
    6.9382  -48.4954  -19.6575 C   0  0  0  0  0  0  0  0  0  0  0  0
    7.7548  -48.7559  -20.7204 C   0  0  0  0  0  0  0  0  0  0  0  0
    7.2233  -49.6983  -21.5188 N   0  0  0  0  0  0  0  0  0  0  0  0
    7.8040  -50.2246  -22.7291 C   0  0  0  0  0  0  0  0  0  0  0  0
    6.0350  -50.0467  -20.9477 C   0  0  0  0  0  0  0  0  0  0  0  0
    7.2431  -47.4649  -18.6062 C   0  0  0  0  0  0  0  0  0  0  0  0
    8.3989  -47.3956  -18.1365 O   0  0  0  0  0  0  0  0  0  0  0  0
    6.1739  -46.6309  -18.2307 N   0  0  0  0  0  0  0  0  0  0  0  0
    7.1001  -45.8351  -17.5870 H   0  0  0  0  0  0  0  0  0  0  0  0
    5.1943  -45.8485  -17.8704 C   0  0  0  0  0  0  0  0  0  0  0  0
    4.0722  -46.3819  -17.2031 C   0  0  0  0  0  0  0  0  0  0  0  0
    3.0155  -45.6519  -16.8028 C   0  0  0  0  0  0  0  0  0  0  0  0
    3.0156  -44.3000  -17.0600 C   0  0  0  0  0  0  0  0  0  0  0  0
    4.0550  -43.7139  -17.6966 N   0  0  0  0  0  0  0  0  0  0  0  0
    5.1159  -44.4561  -18.0895 C   0  0  0  0  0  0  0  0  0  0  0  0
    1.9010  -43.4740  -16.7104 N   0  0  0  0  0  0  0  0  0  0  0  0
    1.4057  -42.5287  -17.6802 C   0  0  0  0  0  0  0  0  0  0  0  0
   -0.0669  -42.3497  -17.7238 C   0  0  0  0  0  0  0  0  0  0  0  0
   -0.8289  -42.9772  -16.6103 C   0  0  0  0  0  0  0  0  0  0  0  0
   -0.0494  -43.0148  -15.2998 C   0  0  0  0  0  0  0  0  0  0  0  0
    1.3150  -43.5739  -15.4031 C   0  0  0  0  0  0  0  0  0  0  0  0
   -2.0911  -42.3965  -16.3178 N   0  0  0  0  0  0  0  0  0  0  0  0
   -2.3335  -41.0743  -16.7985 C   0  0  0  0  0  0  0  0  0  0  0  0
   -3.2764  -40.8875  -15.6268 C   0  0  0  0  0  0  0  0  0  0  0  0
   -2.4523  -42.0132  -15.0051 C   0  0  0  0  0  0  0  0  0  0  0  0
   -0.8803  -53.1490  -21.5906 C   0  0  0  0  0  0  0  0  0  0  0  0
   -0.6413  -52.6685  -20.1800 C   0  0  0  0  0  0  0  0  0  0  0  0
   -1.3097  -53.2406  -19.1488 C   0  0  0  0  0  0  0  0  0  0  0  0
   -1.1049  -52.7502  -17.8346 C   0  0  0  0  0  0  0  0  0  0  0  0
   -0.2236  -51.6905  -17.6235 C   0  0  0  0  0  0  0  0  0  0  0  0
    0.4130  -51.1731  -18.7694 C   0  0  0  0  0  0  0  0  0  0  0  0
    0.2322  -51.6264  -20.0034 C   0  0  0  0  0  0  0  0  0  0  0  0
 18 19  2  0  0  0
 19 17  1  0  0  0
 17  1  1  0  0  0
  1  2  1  0  0  0
  2  3  1  0  0  0
  3  4  2  0  0  0
  3  5  1  0  0  0
  5  6  1  0  0  0
  6 20  1  0  0  0
 20 21  1  0  0  0
 21 22  2  0  0  0
 22 23  1  0  0  0
 23 24  2  0  0  0
 24 25  1  0  0  0
 24 26  1  0  0  0
 26 27  2  0  0  0
  6  7  1  0  0  0
  7  8  2  0  0  0
  7  9  1  0  0  0
  9 29  1  0  0  0
 29 30  1  0  0  0
 30 31  2  0  0  0
 31 32  1  0  0  0
 32 33  2  0  0  0
 33 34  1  0  0  0
 34 35  1  0  0  0
 35 40  1  0  0  0
 40 41  2  0  0  0
 40 42  1  0  0  0
 42 44  1  0  0  0
 44 45  2  0  0  0
 45 46  1  0  0  0
 46 47  2  0  0  0
 47 50  1  0  0  0
 50 51  1  0  0  0
 51 52  1  0  0  0
 52 53  1  0  0  0
 53 56  1  0  0  0
 56 57  1  0  0  0
 57 58  1  0  0  0
 58 59  1  0  0  0
 53 54  1  0  0  0
 54 55  1  0  0  0
 47 48  1  0  0  0
 48 49  2  0  0  0
 35 36  2  0  0  0
 36 37  1  0  0  0
 37 38  1  0  0  0
 37 39  1  0  0  0
  9 10  1  0  0  0
 10 11  1  0  0  0
 11 12  1  0  0  0
 12 13  1  0  0  0
 13 14  2  0  0  0
 13 15  1  0  0  0
 15 60  1  0  0  0
 60 61  1  0  0  0
 61 62  2  0  0  0
 62 63  1  0  0  0
 63 64  2  0  0  0
 64 65  1  0  0  0
 65 66  2  0  0  0
 12  1  1  0  0  0
 66 61  1  0  0  0
 11  5  1  0  0  0
 27 21  1  0  0  0
 39 30  1  0  0  0
 39 34  2  0  0  0
 49 44  1  0  0  0
 55 50  1  0  0  0
 59 56  1  0  0  0
 25 28  1  0  0  0
 42 43  1  0  0  0
 15 16  1  0  0  0
M  END
> <minimizedAffinity>
-9.07936

> <CNNscore>
0.0285013858

> <CNNaffinity>
7.3266744614

> <CNN_VS>
0.2088203728

> <CNNaffinity_variance>
0.6334694624

$$$$
[H]Oc1c([H])c([H])c(C([H])([H])[C@@]2([H])C(=O)N(C([H])([H])c3c([H])c([H])c([H])c4c(C(=O)N([H])c5c([H])nc(N6C([H])([H])C([H])([H])C([H])(N7C([H])([H])C([H])([H])C7([H])[H])C([H])([H])C6([H])[H])c([H])c5[H])c([H])n(C([H])([H])[H])c34)C([H])([H])[C@]3([H])N(C(=O)N([H])C([H])([H])c4c([H])c([H])c([H])c([H])c4[H])N(C([H])([H])C([H])=C([H])[H])C([H])([H])C(=O)N23)c([H])c1[H]


 66 74  0  0  0  0  0  0  0  0999 V2000
    6.2723  -45.1592  -17.7721 N   0  0  0  0  0  0  0  0  0  0  0  0
    6.3433  -44.2595  -16.6348 C   0  0  0  0  0  0  0  0  0  0  0  0
    5.1147  -43.3886  -16.8367 C   0  0  0  0  0  0  0  0  0  0  0  0
    5.2866  -42.1565  -16.8082 O   0  0  0  0  0  0  0  0  0  0  0  0
    3.8752  -43.9965  -17.0356 N   0  0  0  0  0  0  0  0  0  0  0  0
    2.6603  -43.3105  -16.6995 C   0  0  0  0  0  0  0  0  0  0  0  0
    2.2304  -44.0149  -15.4341 C   0  0  0  0  0  0  0  0  0  0  0  0
    1.8010  -43.3905  -14.4792 O   0  0  0  0  0  0  0  0  0  0  0  0
    2.3468  -45.4188  -15.4097 N   0  0  0  0  0  0  0  0  0  0  0  0
    2.9471  -46.1806  -16.5320 C   0  0  0  0  0  0  0  0  0  0  0  0
    3.7635  -45.3619  -17.4758 C   0  0  0  0  0  0  0  0  0  0  0  0
    5.0607  -45.8816  -17.8433 N   0  0  0  0  0  0  0  0  0  0  0  0
    5.2044  -47.2101  -18.3507 C   0  0  0  0  0  0  0  0  0  0  0  0
    6.3944  -47.6059  -18.5918 O   0  0  0  0  0  0  0  0  0  0  0  0
    4.1863  -48.1332  -18.6193 N   0  0  0  0  0  0  0  0  0  0  0  0
    3.2052  -47.9003  -18.4642 H   0  0  0  0  0  0  0  0  0  0  0  0
    6.4690  -44.2895  -18.9221 C   0  0  0  0  0  0  0  0  0  0  0  0
    8.7110  -43.5587  -19.4980 C   0  0  0  0  0  0  0  0  0  0  0  0
    7.7443  -44.4327  -19.5825 C   0  0  0  0  0  0  0  0  0  0  0  0
    1.5701  -43.2600  -17.6842 C   0  0  0  0  0  0  0  0  0  0  0  0
    0.4224  -42.3801  -17.4497 C   0  0  0  0  0  0  0  0  0  0  0  0
    0.4762  -41.0344  -17.8175 C   0  0  0  0  0  0  0  0  0  0  0  0
   -0.5737  -40.1853  -17.5404 C   0  0  0  0  0  0  0  0  0  0  0  0
   -1.7189  -40.6046  -16.8931 C   0  0  0  0  0  0  0  0  0  0  0  0
   -2.7364  -39.7022  -16.6478 O   0  0  0  0  0  0  0  0  0  0  0  0
   -1.7752  -41.9212  -16.5298 C   0  0  0  0  0  0  0  0  0  0  0  0
   -0.7210  -42.7926  -16.8034 C   0  0  0  0  0  0  0  0  0  0  0  0
   -2.6840  -38.7279  -16.9244 H   0  0  0  0  0  0  0  0  0  0  0  0
    1.9291  -46.2542  -14.2824 C   0  0  0  0  0  0  0  0  0  0  0  0
    2.0709  -47.6666  -14.6494 C   0  0  0  0  0  0  0  0  0  0  0  0
    3.2775  -48.3124  -14.5785 C   0  0  0  0  0  0  0  0  0  0  0  0
    3.4322  -49.6292  -14.9767 C   0  0  0  0  0  0  0  0  0  0  0  0
    2.3463  -50.3335  -15.4634 C   0  0  0  0  0  0  0  0  0  0  0  0
    1.1077  -49.6838  -15.5386 C   0  0  0  0  0  0  0  0  0  0  0  0
   -0.1119  -50.1137  -15.9423 C   0  0  0  0  0  0  0  0  0  0  0  0
   -0.9725  -49.0660  -15.7797 C   0  0  0  0  0  0  0  0  0  0  0  0
   -0.3350  -47.9884  -15.2892 N   0  0  0  0  0  0  0  0  0  0  0  0
   -0.9229  -46.7063  -14.9900 C   0  0  0  0  0  0  0  0  0  0  0  0
    0.9678  -48.3612  -15.1360 C   0  0  0  0  0  0  0  0  0  0  0  0
   -0.5201  -51.4469  -16.5044 C   0  0  0  0  0  0  0  0  0  0  0  0
   -1.0404  -52.2946  -15.7481 O   0  0  0  0  0  0  0  0  0  0  0  0
   -0.2849  -51.6357  -17.8786 N   0  0  0  0  0  0  0  0  0  0  0  0
   -1.0824  -52.7596  -17.7989 H   0  0  0  0  0  0  0  0  0  0  0  0
   -0.0745  -51.8284  -19.1516 C   0  0  0  0  0  0  0  0  0  0  0  0
    0.4401  -50.7852  -19.9489 C   0  0  0  0  0  0  0  0  0  0  0  0
    0.6804  -50.8927  -21.2682 C   0  0  0  0  0  0  0  0  0  0  0  0
    0.4052  -52.0888  -21.8907 C   0  0  0  0  0  0  0  0  0  0  0  0
   -0.0913  -53.1365  -21.1944 N   0  0  0  0  0  0  0  0  0  0  0  0
   -0.3233  -53.0200  -19.8665 C   0  0  0  0  0  0  0  0  0  0  0  0
    0.5857  -52.2550  -23.3003 N   0  0  0  0  0  0  0  0  0  0  0  0
    0.1686  -53.4921  -23.9129 C   0  0  0  0  0  0  0  0  0  0  0  0
   -0.4383  -53.3795  -25.2625 C   0  0  0  0  0  0  0  0  0  0  0  0
   -0.3225  -52.0476  -25.9158 C   0  0  0  0  0  0  0  0  0  0  0  0
    0.9492  -51.3003  -25.5276 C   0  0  0  0  0  0  0  0  0  0  0  0
    1.2001  -51.2125  -24.0736 C   0  0  0  0  0  0  0  0  0  0  0  0
   -0.3803  -52.0454  -27.3345 N   0  0  0  0  0  0  0  0  0  0  0  0
   -1.4682  -52.7358  -27.9491 C   0  0  0  0  0  0  0  0  0  0  0  0
   -0.5647  -52.9697  -29.1431 C   0  0  0  0  0  0  0  0  0  0  0  0
    0.5520  -52.7601  -28.1224 C   0  0  0  0  0  0  0  0  0  0  0  0
    4.4854  -49.4625  -19.1445 C   0  0  0  0  0  0  0  0  0  0  0  0
    4.3228  -49.4843  -20.6447 C   0  0  0  0  0  0  0  0  0  0  0  0
    4.9551  -50.4318  -21.3794 C   0  0  0  0  0  0  0  0  0  0  0  0
    4.8254  -50.4136  -22.7909 C   0  0  0  0  0  0  0  0  0  0  0  0
    4.0534  -49.4249  -23.3998 C   0  0  0  0  0  0  0  0  0  0  0  0
    3.4451  -48.4912  -22.5371 C   0  0  0  0  0  0  0  0  0  0  0  0
    3.5562  -48.5006  -21.2148 C   0  0  0  0  0  0  0  0  0  0  0  0
 18 19  2  0  0  0
 19 17  1  0  0  0
 17  1  1  0  0  0
  1  2  1  0  0  0
  2  3  1  0  0  0
  3  4  2  0  0  0
  3  5  1  0  0  0
  5  6  1  0  0  0
  6 20  1  0  0  0
 20 21  1  0  0  0
 21 22  2  0  0  0
 22 23  1  0  0  0
 23 24  2  0  0  0
 24 25  1  0  0  0
 24 26  1  0  0  0
 26 27  2  0  0  0
  6  7  1  0  0  0
  7  8  2  0  0  0
  7  9  1  0  0  0
  9 29  1  0  0  0
 29 30  1  0  0  0
 30 31  2  0  0  0
 31 32  1  0  0  0
 32 33  2  0  0  0
 33 34  1  0  0  0
 34 35  1  0  0  0
 35 40  1  0  0  0
 40 41  2  0  0  0
 40 42  1  0  0  0
 42 44  1  0  0  0
 44 45  2  0  0  0
 45 46  1  0  0  0
 46 47  2  0  0  0
 47 50  1  0  0  0
 50 51  1  0  0  0
 51 52  1  0  0  0
 52 53  1  0  0  0
 53 56  1  0  0  0
 56 57  1  0  0  0
 57 58  1  0  0  0
 58 59  1  0  0  0
 53 54  1  0  0  0
 54 55  1  0  0  0
 47 48  1  0  0  0
 48 49  2  0  0  0
 35 36  2  0  0  0
 36 37  1  0  0  0
 37 38  1  0  0  0
 37 39  1  0  0  0
  9 10  1  0  0  0
 10 11  1  0  0  0
 11 12  1  0  0  0
 12 13  1  0  0  0
 13 14  2  0  0  0
 13 15  1  0  0  0
 15 60  1  0  0  0
 60 61  1  0  0  0
 61 62  2  0  0  0
 62 63  1  0  0  0
 63 64  2  0  0  0
 64 65  1  0  0  0
 65 66  2  0  0  0
 12  1  1  0  0  0
 66 61  1  0  0  0
 11  5  1  0  0  0
 27 21  1  0  0  0
 39 30  1  0  0  0
 39 34  2  0  0  0
 49 44  1  0  0  0
 55 50  1  0  0  0
 59 56  1  0  0  0
 25 28  1  0  0  0
 42 43  1  0  0  0
 15 16  1  0  0  0
M  END
> <minimizedAffinity>
-8.09068

> <CNNscore>
0.0274210479

> <CNNaffinity>
7.1275496483

> <CNN_VS>
0.1954448819

> <CNNaffinity_variance>
0.6895434856

$$$$
[H]Oc1c([H])c([H])c(C([H])([H])[C@@]2([H])C(=O)N(C([H])([H])c3c([H])c([H])c([H])c4c(C(=O)N([H])c5c([H])nc(N6C([H])([H])C([H])([H])C([H])(N7C([H])([H])C([H])([H])C7([H])[H])C([H])([H])C6([H])[H])c([H])c5[H])c([H])n(C([H])([H])[H])c34)C([H])([H])[C@]3([H])N(C(=O)N([H])C([H])([H])c4c([H])c([H])c([H])c([H])c4[H])N(C([H])([H])C([H])=C([H])[H])C([H])([H])C(=O)N23)c([H])c1[H]


 66 74  0  0  0  0  0  0  0  0999 V2000
    9.0769  -43.8417  -25.7168 N   0  0  0  0  0  0  0  0  0  0  0  0
    8.1634  -42.7768  -26.0900 C   0  0  0  0  0  0  0  0  0  0  0  0
    7.7121  -43.2108  -27.4744 C   0  0  0  0  0  0  0  0  0  0  0  0
    7.8035  -42.3692  -28.3864 O   0  0  0  0  0  0  0  0  0  0  0  0
    7.2217  -44.5039  -27.6559 N   0  0  0  0  0  0  0  0  0  0  0  0
    6.3150  -44.7999  -28.7282 C   0  0  0  0  0  0  0  0  0  0  0  0
    4.9969  -44.9499  -28.0055 C   0  0  0  0  0  0  0  0  0  0  0  0
    3.9717  -44.4689  -28.4568 O   0  0  0  0  0  0  0  0  0  0  0  0
    5.0074  -45.6685  -26.7937 N   0  0  0  0  0  0  0  0  0  0  0  0
    6.2617  -46.1839  -26.1926 C   0  0  0  0  0  0  0  0  0  0  0  0
    7.5098  -45.5608  -26.7229 C   0  0  0  0  0  0  0  0  0  0  0  0
    8.4897  -45.1257  -25.7541 N   0  0  0  0  0  0  0  0  0  0  0  0
    8.9694  -46.0145  -24.7426 C   0  0  0  0  0  0  0  0  0  0  0  0
    9.7881  -45.5267  -23.8925 O   0  0  0  0  0  0  0  0  0  0  0  0
    8.6473  -47.3669  -24.5757 N   0  0  0  0  0  0  0  0  0  0  0  0
    8.0076  -47.8420  -25.2128 H   0  0  0  0  0  0  0  0  0  0  0  0
   10.1783  -43.7069  -26.6583 C   0  0  0  0  0  0  0  0  0  0  0  0
   11.7810  -42.4856  -25.3046 C   0  0  0  0  0  0  0  0  0  0  0  0
   11.4744  -43.5099  -26.0546 C   0  0  0  0  0  0  0  0  0  0  0  0
    6.5862  -45.9536  -29.5978 C   0  0  0  0  0  0  0  0  0  0  0  0
    7.8791  -46.0595  -30.2786 C   0  0  0  0  0  0  0  0  0  0  0  0
    8.7906  -47.0525  -29.9150 C   0  0  0  0  0  0  0  0  0  0  0  0
   10.0348  -47.1176  -30.5048 C   0  0  0  0  0  0  0  0  0  0  0  0
   10.4483  -46.2214  -31.4702 C   0  0  0  0  0  0  0  0  0  0  0  0
   11.7087  -46.3441  -32.0237 O   0  0  0  0  0  0  0  0  0  0  0  0
    9.5595  -45.2465  -31.8282 C   0  0  0  0  0  0  0  0  0  0  0  0
    8.2970  -45.1678  -31.2406 C   0  0  0  0  0  0  0  0  0  0  0  0
   12.3588  -47.0734  -31.7515 H   0  0  0  0  0  0  0  0  0  0  0  0
    3.8107  -45.9459  -25.9975 C   0  0  0  0  0  0  0  0  0  0  0  0
    3.6295  -47.3967  -25.8874 C   0  0  0  0  0  0  0  0  0  0  0  0
    3.6471  -48.2113  -26.9892 C   0  0  0  0  0  0  0  0  0  0  0  0
    3.4204  -49.5741  -26.9009 C   0  0  0  0  0  0  0  0  0  0  0  0
    3.1673  -50.1517  -25.6702 C   0  0  0  0  0  0  0  0  0  0  0  0
    3.1487  -49.3288  -24.5369 C   0  0  0  0  0  0  0  0  0  0  0  0
    2.9549  -49.6063  -23.2252 C   0  0  0  0  0  0  0  0  0  0  0  0
    3.0704  -48.4244  -22.5513 C   0  0  0  0  0  0  0  0  0  0  0  0
    3.3279  -47.4098  -23.3953 N   0  0  0  0  0  0  0  0  0  0  0  0
    3.5131  -46.0246  -23.0405 C   0  0  0  0  0  0  0  0  0  0  0  0
    3.3772  -47.9620  -24.6412 C   0  0  0  0  0  0  0  0  0  0  0  0
    2.6355  -50.9162  -22.5602 C   0  0  0  0  0  0  0  0  0  0  0  0
    2.4694  -51.9343  -23.2653 O   0  0  0  0  0  0  0  0  0  0  0  0
    2.5555  -50.8922  -21.1556 N   0  0  0  0  0  0  0  0  0  0  0  0
    2.5689  -52.2721  -21.1917 H   0  0  0  0  0  0  0  0  0  0  0  0
    2.4776  -50.8888  -19.8535 C   0  0  0  0  0  0  0  0  0  0  0  0
    3.6234  -50.6173  -19.0774 C   0  0  0  0  0  0  0  0  0  0  0  0
    3.6365  -50.6004  -17.7323 C   0  0  0  0  0  0  0  0  0  0  0  0
    2.4659  -50.8692  -17.0605 C   0  0  0  0  0  0  0  0  0  0  0  0
    1.3247  -51.1399  -17.7339 N   0  0  0  0  0  0  0  0  0  0  0  0
    1.3208  -51.1481  -19.0870 C   0  0  0  0  0  0  0  0  0  0  0  0
    2.4209  -50.9211  -15.6315 N   0  0  0  0  0  0  0  0  0  0  0  0
    1.1561  -51.1695  -14.9849 C   0  0  0  0  0  0  0  0  0  0  0  0
    1.1998  -52.0253  -13.7732 C   0  0  0  0  0  0  0  0  0  0  0  0
    2.5561  -52.3205  -13.2372 C   0  0  0  0  0  0  0  0  0  0  0  0
    3.5512  -51.1890  -13.4739 C   0  0  0  0  0  0  0  0  0  0  0  0
    3.6157  -50.6982  -14.8666 C   0  0  0  0  0  0  0  0  0  0  0  0
    2.6212  -52.6387  -11.8550 N   0  0  0  0  0  0  0  0  0  0  0  0
    2.3851  -53.9962  -11.4813 C   0  0  0  0  0  0  0  0  0  0  0  0
    1.8787  -53.4771  -10.1505 C   0  0  0  0  0  0  0  0  0  0  0  0
    1.6439  -52.1889  -10.9368 C   0  0  0  0  0  0  0  0  0  0  0  0
    9.2233  -48.1566  -23.4908 C   0  0  0  0  0  0  0  0  0  0  0  0
    8.1737  -49.0493  -22.8752 C   0  0  0  0  0  0  0  0  0  0  0  0
    7.5442  -49.9771  -23.6371 C   0  0  0  0  0  0  0  0  0  0  0  0
    6.5316  -50.7796  -23.0540 C   0  0  0  0  0  0  0  0  0  0  0  0
    6.1990  -50.6027  -21.7115 C   0  0  0  0  0  0  0  0  0  0  0  0
    6.9171  -49.6075  -21.0186 C   0  0  0  0  0  0  0  0  0  0  0  0
    7.8693  -48.8532  -21.5527 C   0  0  0  0  0  0  0  0  0  0  0  0
 18 19  2  0  0  0
 19 17  1  0  0  0
 17  1  1  0  0  0
  1  2  1  0  0  0
  2  3  1  0  0  0
  3  4  2  0  0  0
  3  5  1  0  0  0
  5  6  1  0  0  0
  6 20  1  0  0  0
 20 21  1  0  0  0
 21 22  2  0  0  0
 22 23  1  0  0  0
 23 24  2  0  0  0
 24 25  1  0  0  0
 24 26  1  0  0  0
 26 27  2  0  0  0
  6  7  1  0  0  0
  7  8  2  0  0  0
  7  9  1  0  0  0
  9 29  1  0  0  0
 29 30  1  0  0  0
 30 31  2  0  0  0
 31 32  1  0  0  0
 32 33  2  0  0  0
 33 34  1  0  0  0
 34 35  1  0  0  0
 35 40  1  0  0  0
 40 41  2  0  0  0
 40 42  1  0  0  0
 42 44  1  0  0  0
 44 45  2  0  0  0
 45 46  1  0  0  0
 46 47  2  0  0  0
 47 50  1  0  0  0
 50 51  1  0  0  0
 51 52  1  0  0  0
 52 53  1  0  0  0
 53 56  1  0  0  0
 56 57  1  0  0  0
 57 58  1  0  0  0
 58 59  1  0  0  0
 53 54  1  0  0  0
 54 55  1  0  0  0
 47 48  1  0  0  0
 48 49  2  0  0  0
 35 36  2  0  0  0
 36 37  1  0  0  0
 37 38  1  0  0  0
 37 39  1  0  0  0
  9 10  1  0  0  0
 10 11  1  0  0  0
 11 12  1  0  0  0
 12 13  1  0  0  0
 13 14  2  0  0  0
 13 15  1  0  0  0
 15 60  1  0  0  0
 60 61  1  0  0  0
 61 62  2  0  0  0
 62 63  1  0  0  0
 63 64  2  0  0  0
 64 65  1  0  0  0
 65 66  2  0  0  0
 12  1  1  0  0  0
 66 61  1  0  0  0
 11  5  1  0  0  0
 27 21  1  0  0  0
 39 30  1  0  0  0
 39 34  2  0  0  0
 49 44  1  0  0  0
 55 50  1  0  0  0
 59 56  1  0  0  0
 25 28  1  0  0  0
 42 43  1  0  0  0
 15 16  1  0  0  0
M  END
> <minimizedAffinity>
-6.82034

> <CNNscore>
0.0268266406

> <CNNaffinity>
6.7090101242

> <CNN_VS>
0.1799802035

> <CNNaffinity_variance>
0.4961345196

$$$$
[H]Oc1c([H])c([H])c(C([H])([H])[C@@]2([H])C(=O)N(C([H])([H])c3c([H])c([H])c([H])c4c(C(=O)N([H])c5c([H])nc(N6C([H])([H])C([H])([H])C([H])(N7C([H])([H])C([H])([H])C7([H])[H])C([H])([H])C6([H])[H])c([H])c5[H])c([H])n(C([H])([H])[H])c34)C([H])([H])[C@]3([H])N(C(=O)N([H])C([H])([H])c4c([H])c([H])c([H])c([H])c4[H])N(C([H])([H])C([H])=C([H])[H])C([H])([H])C(=O)N23)c([H])c1[H]


 66 74  0  0  0  0  0  0  0  0999 V2000
   -1.3458  -50.9955  -16.2181 N   0  0  0  0  0  0  0  0  0  0  0  0
   -1.1769  -49.6095  -15.8201 C   0  0  0  0  0  0  0  0  0  0  0  0
    0.2219  -49.6136  -15.2268 C   0  0  0  0  0  0  0  0  0  0  0  0
    0.3534  -49.1240  -14.0904 O   0  0  0  0  0  0  0  0  0  0  0  0
    1.2740  -50.1502  -15.9688 N   0  0  0  0  0  0  0  0  0  0  0  0
    2.6245  -49.7213  -15.7415 C   0  0  0  0  0  0  0  0  0  0  0  0
    2.8942  -48.8495  -16.9454 C   0  0  0  0  0  0  0  0  0  0  0  0
    3.4789  -47.7854  -16.8355 O   0  0  0  0  0  0  0  0  0  0  0  0
    2.4425  -49.3213  -18.1937 N   0  0  0  0  0  0  0  0  0  0  0  0
    1.6558  -50.5717  -18.3272 C   0  0  0  0  0  0  0  0  0  0  0  0
    1.0446  -51.0629  -17.0574 C   0  0  0  0  0  0  0  0  0  0  0  0
   -0.3462  -51.4520  -17.1052 N   0  0  0  0  0  0  0  0  0  0  0  0
   -0.8157  -52.3864  -18.0797 C   0  0  0  0  0  0  0  0  0  0  0  0
   -2.0703  -52.6252  -18.0869 O   0  0  0  0  0  0  0  0  0  0  0  0
   -0.0559  -53.0776  -19.0314 N   0  0  0  0  0  0  0  0  0  0  0  0
    0.9551  -52.9549  -19.0932 H   0  0  0  0  0  0  0  0  0  0  0  0
   -1.3473  -51.7257  -14.9593 C   0  0  0  0  0  0  0  0  0  0  0  0
   -2.7467  -52.0806  -13.0079 C   0  0  0  0  0  0  0  0  0  0  0  0
   -2.6082  -51.7257  -14.2571 C   0  0  0  0  0  0  0  0  0  0  0  0
    3.6767  -50.7320  -15.5625 C   0  0  0  0  0  0  0  0  0  0  0  0
    3.7251  -51.5162  -14.3260 C   0  0  0  0  0  0  0  0  0  0  0  0
    4.4873  -52.6839  -14.2585 C   0  0  0  0  0  0  0  0  0  0  0  0
    4.4855  -53.4623  -13.1208 C   0  0  0  0  0  0  0  0  0  0  0  0
    3.7429  -53.1424  -12.0017 C   0  0  0  0  0  0  0  0  0  0  0  0
    3.7877  -53.9649  -10.8920 O   0  0  0  0  0  0  0  0  0  0  0  0
    2.9939  -52.0006  -12.0639 C   0  0  0  0  0  0  0  0  0  0  0  0
    2.9856  -51.2026  -13.2079 C   0  0  0  0  0  0  0  0  0  0  0  0
    4.3492  -54.8086  -10.8568 H   0  0  0  0  0  0  0  0  0  0  0  0
    2.6662  -48.6234  -19.4610 C   0  0  0  0  0  0  0  0  0  0  0  0
    3.7876  -49.2512  -20.1667 C   0  0  0  0  0  0  0  0  0  0  0  0
    3.7020  -50.5232  -20.6693 C   0  0  0  0  0  0  0  0  0  0  0  0
    4.7741  -51.1445  -21.2865 C   0  0  0  0  0  0  0  0  0  0  0  0
    5.9785  -50.4767  -21.4112 C   0  0  0  0  0  0  0  0  0  0  0  0
    6.0768  -49.1753  -20.9027 C   0  0  0  0  0  0  0  0  0  0  0  0
    7.0975  -48.2846  -20.8981 C   0  0  0  0  0  0  0  0  0  0  0  0
    6.6310  -47.1541  -20.2907 C   0  0  0  0  0  0  0  0  0  0  0  0
    5.3502  -47.3035  -19.9095 N   0  0  0  0  0  0  0  0  0  0  0  0
    4.5337  -46.3205  -19.2417 C   0  0  0  0  0  0  0  0  0  0  0  0
    4.9922  -48.5647  -20.2846 C   0  0  0  0  0  0  0  0  0  0  0  0
    8.5047  -48.4376  -21.4045 C   0  0  0  0  0  0  0  0  0  0  0  0
    9.4349  -48.5926  -20.5847 O   0  0  0  0  0  0  0  0  0  0  0  0
    8.6653  -48.4016  -22.8018 N   0  0  0  0  0  0  0  0  0  0  0  0
    9.9497  -48.8680  -22.6054 H   0  0  0  0  0  0  0  0  0  0  0  0
    8.8332  -48.3711  -24.0951 C   0  0  0  0  0  0  0  0  0  0  0  0
    8.3638  -49.4341  -24.8942 C   0  0  0  0  0  0  0  0  0  0  0  0
    8.5000  -49.4894  -26.2314 C   0  0  0  0  0  0  0  0  0  0  0  0
    9.1408  -48.4523  -26.8699 C   0  0  0  0  0  0  0  0  0  0  0  0
    9.6202  -47.3972  -26.1728 N   0  0  0  0  0  0  0  0  0  0  0  0
    9.4723  -47.3483  -24.8287 C   0  0  0  0  0  0  0  0  0  0  0  0
    9.3678  -48.4723  -28.2824 N   0  0  0  0  0  0  0  0  0  0  0  0
    8.2409  -48.3203  -29.1693 C   0  0  0  0  0  0  0  0  0  0  0  0
    8.4806  -47.5232  -30.3980 C   0  0  0  0  0  0  0  0  0  0  0  0
    9.9013  -47.1860  -30.6845 C   0  0  0  0  0  0  0  0  0  0  0  0
   10.8779  -48.2525  -30.1997 C   0  0  0  0  0  0  0  0  0  0  0  0
   10.6948  -48.6711  -28.7940 C   0  0  0  0  0  0  0  0  0  0  0  0
   10.2163  -46.9324  -32.0455 N   0  0  0  0  0  0  0  0  0  0  0  0
    9.4374  -47.6027  -33.0364 C   0  0  0  0  0  0  0  0  0  0  0  0
   10.6452  -47.5272  -33.9486 C   0  0  0  0  0  0  0  0  0  0  0  0
   11.4145  -47.3981  -32.6354 C   0  0  0  0  0  0  0  0  0  0  0  0
   -0.6767  -54.0120  -19.9661 C   0  0  0  0  0  0  0  0  0  0  0  0
   -0.3241  -53.6467  -21.3873 C   0  0  0  0  0  0  0  0  0  0  0  0
    0.4493  -52.5611  -21.6341 C   0  0  0  0  0  0  0  0  0  0  0  0
    0.7373  -52.2075  -22.9762 C   0  0  0  0  0  0  0  0  0  0  0  0
    0.2221  -52.9778  -24.0181 C   0  0  0  0  0  0  0  0  0  0  0  0
   -0.5707  -54.0810  -23.6430 C   0  0  0  0  0  0  0  0  0  0  0  0
   -0.8437  -54.4238  -22.3904 C   0  0  0  0  0  0  0  0  0  0  0  0
 18 19  2  0  0  0
 19 17  1  0  0  0
 17  1  1  0  0  0
  1  2  1  0  0  0
  2  3  1  0  0  0
  3  4  2  0  0  0
  3  5  1  0  0  0
  5  6  1  0  0  0
  6 20  1  0  0  0
 20 21  1  0  0  0
 21 22  2  0  0  0
 22 23  1  0  0  0
 23 24  2  0  0  0
 24 25  1  0  0  0
 24 26  1  0  0  0
 26 27  2  0  0  0
  6  7  1  0  0  0
  7  8  2  0  0  0
  7  9  1  0  0  0
  9 29  1  0  0  0
 29 30  1  0  0  0
 30 31  2  0  0  0
 31 32  1  0  0  0
 32 33  2  0  0  0
 33 34  1  0  0  0
 34 35  1  0  0  0
 35 40  1  0  0  0
 40 41  2  0  0  0
 40 42  1  0  0  0
 42 44  1  0  0  0
 44 45  2  0  0  0
 45 46  1  0  0  0
 46 47  2  0  0  0
 47 50  1  0  0  0
 50 51  1  0  0  0
 51 52  1  0  0  0
 52 53  1  0  0  0
 53 56  1  0  0  0
 56 57  1  0  0  0
 57 58  1  0  0  0
 58 59  1  0  0  0
 53 54  1  0  0  0
 54 55  1  0  0  0
 47 48  1  0  0  0
 48 49  2  0  0  0
 35 36  2  0  0  0
 36 37  1  0  0  0
 37 38  1  0  0  0
 37 39  1  0  0  0
  9 10  1  0  0  0
 10 11  1  0  0  0
 11 12  1  0  0  0
 12 13  1  0  0  0
 13 14  2  0  0  0
 13 15  1  0  0  0
 15 60  1  0  0  0
 60 61  1  0  0  0
 61 62  2  0  0  0
 62 63  1  0  0  0
 63 64  2  0  0  0
 64 65  1  0  0  0
 65 66  2  0  0  0
 12  1  1  0  0  0
 66 61  1  0  0  0
 11  5  1  0  0  0
 27 21  1  0  0  0
 39 30  1  0  0  0
 39 34  2  0  0  0
 49 44  1  0  0  0
 55 50  1  0  0  0
 59 56  1  0  0  0
 25 28  1  0  0  0
 42 43  1  0  0  0
 15 16  1  0  0  0
M  END
> <minimizedAffinity>
-8.80013

> <CNNscore>
0.0266743973

> <CNNaffinity>
6.7008438110

> <CNN_VS>
0.1787409633

> <CNNaffinity_variance>
0.4533487856

$$$$
[H]Oc1c([H])c([H])c(C([H])([H])[C@@]2([H])C(=O)N(C([H])([H])c3c([H])c([H])c([H])c4c(C(=O)N([H])c5c([H])nc(N6C([H])([H])C([H])([H])C([H])(N7C([H])([H])C([H])([H])C7([H])[H])C([H])([H])C6([H])[H])c([H])c5[H])c([H])n(C([H])([H])[H])c34)C([H])([H])[C@]3([H])N(C(=O)N([H])C([H])([H])c4c([H])c([H])c([H])c([H])c4[H])N(C([H])([H])C([H])=C([H])[H])C([H])([H])C(=O)N23)c([H])c1[H]


 66 74  0  0  0  0  0  0  0  0999 V2000
    6.0725  -50.2808  -22.6419 N   0  0  0  0  0  0  0  0  0  0  0  0
    6.3338  -51.3083  -23.6338 C   0  0  0  0  0  0  0  0  0  0  0  0
    4.9412  -51.8497  -23.9102 C   0  0  0  0  0  0  0  0  0  0  0  0
    4.7909  -53.0827  -23.8351 O   0  0  0  0  0  0  0  0  0  0  0  0
    3.9171  -50.9597  -24.2335 N   0  0  0  0  0  0  0  0  0  0  0  0
    2.7860  -51.3926  -25.0035 C   0  0  0  0  0  0  0  0  0  0  0  0
    3.0581  -50.7734  -26.3543 C   0  0  0  0  0  0  0  0  0  0  0  0
    2.8750  -51.4000  -27.3839 O   0  0  0  0  0  0  0  0  0  0  0  0
    3.5289  -49.4456  -26.3688 N   0  0  0  0  0  0  0  0  0  0  0  0
    3.8363  -48.7037  -25.1217 C   0  0  0  0  0  0  0  0  0  0  0  0
    4.0003  -49.5600  -23.9104 C   0  0  0  0  0  0  0  0  0  0  0  0
    5.1505  -49.3024  -23.0746 N   0  0  0  0  0  0  0  0  0  0  0  0
    5.4266  -47.9871  -22.5879 C   0  0  0  0  0  0  0  0  0  0  0  0
    6.4972  -47.8409  -21.9071 O   0  0  0  0  0  0  0  0  0  0  0  0
    4.6540  -46.8333  -22.7683 N   0  0  0  0  0  0  0  0  0  0  0  0
    3.7787  -46.8580  -23.2920 H   0  0  0  0  0  0  0  0  0  0  0  0
    5.5940  -51.0220  -21.4847 C   0  0  0  0  0  0  0  0  0  0  0  0
    3.6874  -50.8321  -19.9944 C   0  0  0  0  0  0  0  0  0  0  0  0
    4.6967  -50.2912  -20.6222 C   0  0  0  0  0  0  0  0  0  0  0  0
    1.4318  -51.0744  -24.5285 C   0  0  0  0  0  0  0  0  0  0  0  0
    0.8107  -51.9098  -23.4978 C   0  0  0  0  0  0  0  0  0  0  0  0
    0.2019  -53.1188  -23.8394 C   0  0  0  0  0  0  0  0  0  0  0  0
   -0.4422  -53.8781  -22.8860 C   0  0  0  0  0  0  0  0  0  0  0  0
   -0.5248  -53.4960  -21.5619 C   0  0  0  0  0  0  0  0  0  0  0  0
   -1.1834  -54.3051  -20.6555 O   0  0  0  0  0  0  0  0  0  0  0  0
    0.0687  -52.3121  -21.2232 C   0  0  0  0  0  0  0  0  0  0  0  0
    0.7241  -51.5330  -22.1765 C   0  0  0  0  0  0  0  0  0  0  0  0
   -1.6181  -55.1829  -20.9184 H   0  0  0  0  0  0  0  0  0  0  0  0
    3.7932  -48.6853  -27.5915 C   0  0  0  0  0  0  0  0  0  0  0  0
    3.7607  -47.2518  -27.2854 C   0  0  0  0  0  0  0  0  0  0  0  0
    2.5934  -46.6089  -26.9663 C   0  0  0  0  0  0  0  0  0  0  0  0
    2.5443  -45.2455  -26.7316 C   0  0  0  0  0  0  0  0  0  0  0  0
    3.6996  -44.4902  -26.8158 C   0  0  0  0  0  0  0  0  0  0  0  0
    4.8989  -45.1373  -27.1395 C   0  0  0  0  0  0  0  0  0  0  0  0
    6.1655  -44.6746  -27.2696 C   0  0  0  0  0  0  0  0  0  0  0  0
    6.9490  -45.7513  -27.5720 C   0  0  0  0  0  0  0  0  0  0  0  0
    6.2176  -46.8777  -27.6399 N   0  0  0  0  0  0  0  0  0  0  0  0
    6.7065  -48.2017  -27.9343 C   0  0  0  0  0  0  0  0  0  0  0  0
    4.9326  -46.5067  -27.3734 C   0  0  0  0  0  0  0  0  0  0  0  0
    6.6885  -43.2697  -27.1570 C   0  0  0  0  0  0  0  0  0  0  0  0
    7.0789  -42.6794  -28.1868 O   0  0  0  0  0  0  0  0  0  0  0  0
    6.6885  -42.7126  -25.8650 N   0  0  0  0  0  0  0  0  0  0  0  0
    6.9351  -41.4905  -26.4577 H   0  0  0  0  0  0  0  0  0  0  0  0
    6.6956  -42.1797  -24.6743 C   0  0  0  0  0  0  0  0  0  0  0  0
    7.1386  -42.9311  -23.5661 C   0  0  0  0  0  0  0  0  0  0  0  0
    7.1727  -42.4655  -22.3045 C   0  0  0  0  0  0  0  0  0  0  0  0
    6.7456  -41.1790  -22.0672 C   0  0  0  0  0  0  0  0  0  0  0  0
    6.3052  -40.3955  -23.0778 N   0  0  0  0  0  0  0  0  0  0  0  0
    6.2810  -40.8713  -24.3443 C   0  0  0  0  0  0  0  0  0  0  0  0
    6.7042  -40.6389  -20.7430 N   0  0  0  0  0  0  0  0  0  0  0  0
    5.5235  -39.9275  -20.3195 C   0  0  0  0  0  0  0  0  0  0  0  0
    5.1091  -40.1324  -18.9093 C   0  0  0  0  0  0  0  0  0  0  0  0
    6.0870  -40.8457  -18.0438 C   0  0  0  0  0  0  0  0  0  0  0  0
    7.5367  -40.5837  -18.4390 C   0  0  0  0  0  0  0  0  0  0  0  0
    7.8370  -40.7840  -19.8723 C   0  0  0  0  0  0  0  0  0  0  0  0
    5.9898  -40.5840  -16.6518 N   0  0  0  0  0  0  0  0  0  0  0  0
    5.2822  -39.4106  -16.2514 C   0  0  0  0  0  0  0  0  0  0  0  0
    6.1614  -39.3760  -15.0175 C   0  0  0  0  0  0  0  0  0  0  0  0
    7.1129  -40.2006  -15.8822 C   0  0  0  0  0  0  0  0  0  0  0  0
    5.0621  -45.5499  -22.2039 C   0  0  0  0  0  0  0  0  0  0  0  0
    4.4477  -45.3562  -20.8391 C   0  0  0  0  0  0  0  0  0  0  0  0
    4.5317  -44.1507  -20.2249 C   0  0  0  0  0  0  0  0  0  0  0  0
    3.9858  -43.9965  -18.9259 C   0  0  0  0  0  0  0  0  0  0  0  0
    3.3739  -45.0829  -18.3016 C   0  0  0  0  0  0  0  0  0  0  0  0
    3.3471  -46.2869  -19.0335 C   0  0  0  0  0  0  0  0  0  0  0  0
    3.8513  -46.4420  -20.2512 C   0  0  0  0  0  0  0  0  0  0  0  0
 18 19  2  0  0  0
 19 17  1  0  0  0
 17  1  1  0  0  0
  1  2  1  0  0  0
  2  3  1  0  0  0
  3  4  2  0  0  0
  3  5  1  0  0  0
  5  6  1  0  0  0
  6 20  1  0  0  0
 20 21  1  0  0  0
 21 22  2  0  0  0
 22 23  1  0  0  0
 23 24  2  0  0  0
 24 25  1  0  0  0
 24 26  1  0  0  0
 26 27  2  0  0  0
  6  7  1  0  0  0
  7  8  2  0  0  0
  7  9  1  0  0  0
  9 29  1  0  0  0
 29 30  1  0  0  0
 30 31  2  0  0  0
 31 32  1  0  0  0
 32 33  2  0  0  0
 33 34  1  0  0  0
 34 35  1  0  0  0
 35 40  1  0  0  0
 40 41  2  0  0  0
 40 42  1  0  0  0
 42 44  1  0  0  0
 44 45  2  0  0  0
 45 46  1  0  0  0
 46 47  2  0  0  0
 47 50  1  0  0  0
 50 51  1  0  0  0
 51 52  1  0  0  0
 52 53  1  0  0  0
 53 56  1  0  0  0
 56 57  1  0  0  0
 57 58  1  0  0  0
 58 59  1  0  0  0
 53 54  1  0  0  0
 54 55  1  0  0  0
 47 48  1  0  0  0
 48 49  2  0  0  0
 35 36  2  0  0  0
 36 37  1  0  0  0
 37 38  1  0  0  0
 37 39  1  0  0  0
  9 10  1  0  0  0
 10 11  1  0  0  0
 11 12  1  0  0  0
 12 13  1  0  0  0
 13 14  2  0  0  0
 13 15  1  0  0  0
 15 60  1  0  0  0
 60 61  1  0  0  0
 61 62  2  0  0  0
 62 63  1  0  0  0
 63 64  2  0  0  0
 64 65  1  0  0  0
 65 66  2  0  0  0
 12  1  1  0  0  0
 66 61  1  0  0  0
 11  5  1  0  0  0
 27 21  1  0  0  0
 39 30  1  0  0  0
 39 34  2  0  0  0
 49 44  1  0  0  0
 55 50  1  0  0  0
 59 56  1  0  0  0
 25 28  1  0  0  0
 42 43  1  0  0  0
 15 16  1  0  0  0
M  END
> <minimizedAffinity>
-7.00472

> <CNNscore>
0.0255179424

> <CNNaffinity>
6.9862074852

> <CNN_VS>
0.1782736331

> <CNNaffinity_variance>
0.6671315432

$$$$
[H]c1nc(Oc2c([H])c([H])c(C(=O)N([H])C([H])([H])C([H])([H])N3C([H])([H])C([H])([H])C([H])([H])C3([H])[H])c([H])c2[H])c(N([H])S(=O)(=O)c2c([H])c([H])c(Cl)c(Cl)c2[H])c([H])c1Cl


 38 41  0  0  0  0  0  0  0  0999 V2000
    1.3492  -52.7725  -24.3652 C   0  0  0  0  0  0  0  0  0  0  0  0
    1.5844  -52.1741  -25.5468 N   0  0  0  0  0  0  0  0  0  0  0  0
    0.6354  -52.0733  -26.4820 C   0  0  0  0  0  0  0  0  0  0  0  0
   -0.5974  -52.5897  -26.2279 C   0  0  0  0  0  0  0  0  0  0  0  0
   -1.8369  -52.4525  -27.4630 Cl  0  0  0  0  0  0  0  0  0  0  0  0
   -0.8647  -53.2179  -25.0021 C   0  0  0  0  0  0  0  0  0  0  0  0
    0.1245  -53.3120  -24.0541 C   0  0  0  0  0  0  0  0  0  0  0  0
   -0.0562  -53.9047  -22.7833 N   0  0  0  0  0  0  0  0  0  0  0  0
    0.0804  -54.9496  -22.6479 H   0  0  0  0  0  0  0  0  0  0  0  0
   -0.5003  -52.9323  -21.4427 S   0  0  0  0  0  0  0  0  0  0  0  0
   -1.7195  -52.1054  -21.8307 O   0  0  0  0  0  0  0  0  0  0  0  0
   -0.8933  -53.8770  -20.3093 O   0  0  0  0  0  0  0  0  0  0  0  0
    0.7271  -51.8699  -20.8634 C   0  0  0  0  0  0  0  0  0  0  0  0
    1.7132  -52.3233  -19.9806 C   0  0  0  0  0  0  0  0  0  0  0  0
    2.6616  -51.4413  -19.5487 C   0  0  0  0  0  0  0  0  0  0  0  0
    2.6557  -50.1223  -19.9705 C   0  0  0  0  0  0  0  0  0  0  0  0
    3.8737  -49.0074  -19.4082 Cl  0  0  0  0  0  0  0  0  0  0  0  0
    1.6786  -49.6681  -20.8466 C   0  0  0  0  0  0  0  0  0  0  0  0
    1.7079  -47.9995  -21.3527 Cl  0  0  0  0  0  0  0  0  0  0  0  0
    0.7130  -50.5637  -21.2873 C   0  0  0  0  0  0  0  0  0  0  0  0
    2.3949  -52.8376  -23.4383 O   0  0  0  0  0  0  0  0  0  0  0  0
    6.0366  -50.8605  -24.0960 C   0  0  0  0  0  0  0  0  0  0  0  0
    4.8802  -50.1416  -23.7582 C   0  0  0  0  0  0  0  0  0  0  0  0
    3.6842  -50.8034  -23.5441 C   0  0  0  0  0  0  0  0  0  0  0  0
    3.5878  -52.1702  -23.6529 C   0  0  0  0  0  0  0  0  0  0  0  0
    4.7333  -52.8506  -23.9849 C   0  0  0  0  0  0  0  0  0  0  0  0
    5.9421  -52.2125  -24.2044 C   0  0  0  0  0  0  0  0  0  0  0  0
    7.9814  -49.7807  -23.2866 O   0  0  0  0  0  0  0  0  0  0  0  0
    7.2871  -50.1469  -24.3037 C   0  0  0  0  0  0  0  0  0  0  0  0
    7.7852  -49.8313  -25.5838 N   0  0  0  0  0  0  0  0  0  0  0  0
    7.1995  -50.1395  -26.3985 H   0  0  0  0  0  0  0  0  0  0  0  0
    9.0031  -49.1318  -25.8792 C   0  0  0  0  0  0  0  0  0  0  0  0
    8.7099  -47.6671  -26.0542 C   0  0  0  0  0  0  0  0  0  0  0  0
    8.9128  -47.2798  -27.4204 N   0  0  0  0  0  0  0  0  0  0  0  0
    7.7400  -46.9308  -28.1463 C   0  0  0  0  0  0  0  0  0  0  0  0
    7.4492  -48.0678  -29.1117 C   0  0  0  0  0  0  0  0  0  0  0  0
    8.8107  -48.6635  -29.3298 C   0  0  0  0  0  0  0  0  0  0  0  0
    9.6889  -48.1896  -28.2014 C   0  0  0  0  0  0  0  0  0  0  0  0
 28 29  2  0  0  0
 29 30  1  0  0  0
 30 32  1  0  0  0
 32 33  1  0  0  0
 33 34  1  0  0  0
 34 35  1  0  0  0
 35 36  1  0  0  0
 36 37  1  0  0  0
 37 38  1  0  0  0
 29 22  1  0  0  0
 22 23  2  0  0  0
 23 24  1  0  0  0
 24 25  2  0  0  0
 25 21  1  0  0  0
 21  1  1  0  0  0
  1  2  2  0  0  0
  2  3  1  0  0  0
  3  4  2  0  0  0
  4  5  1  0  0  0
  4  6  1  0  0  0
  6  7  2  0  0  0
  7  8  1  0  0  0
  8 10  1  0  0  0
 10 11  2  0  0  0
 10 12  2  0  0  0
 10 13  1  0  0  0
 13 14  2  0  0  0
 14 15  1  0  0  0
 15 16  2  0  0  0
 16 17  1  0  0  0
 16 18  1  0  0  0
 18 19  1  0  0  0
 18 20  2  0  0  0
 25 26  1  0  0  0
 26 27  2  0  0  0
 38 34  1  0  0  0
 27 22  1  0  0  0
  7  1  1  0  0  0
 20 13  1  0  0  0
 30 31  1  0  0  0
  8  9  1  0  0  0
M  END
> <minimizedAffinity>
-6.89350

> <CNNscore>
0.4151181877

> <CNNaffinity>
7.0193915367

> <CNN_VS>
2.9138770103

> <CNNaffinity_variance>
0.1371199191

$$$$
[H]c1nc(Oc2c([H])c([H])c(C(=O)N([H])C([H])([H])C([H])([H])N3C([H])([H])C([H])([H])C([H])([H])C3([H])[H])c([H])c2[H])c(N([H])S(=O)(=O)c2c([H])c([H])c(Cl)c(Cl)c2[H])c([H])c1Cl


 38 41  0  0  0  0  0  0  0  0999 V2000
    1.4267  -52.4577  -23.2139 C   0  0  0  0  0  0  0  0  0  0  0  0
    2.2889  -52.7169  -24.2135 N   0  0  0  0  0  0  0  0  0  0  0  0
    1.8989  -53.3348  -25.3322 C   0  0  0  0  0  0  0  0  0  0  0  0
    0.5968  -53.7086  -25.4588 C   0  0  0  0  0  0  0  0  0  0  0  0
    0.0948  -54.5199  -26.9320 Cl  0  0  0  0  0  0  0  0  0  0  0  0
   -0.3195  -53.4479  -24.4287 C   0  0  0  0  0  0  0  0  0  0  0  0
    0.1013  -52.8123  -23.2864 C   0  0  0  0  0  0  0  0  0  0  0  0
   -0.7513  -52.4865  -22.2067 N   0  0  0  0  0  0  0  0  0  0  0  0
   -1.3604  -51.6167  -22.2400 H   0  0  0  0  0  0  0  0  0  0  0  0
   -0.8076  -53.5021  -20.8262 S   0  0  0  0  0  0  0  0  0  0  0  0
   -2.1237  -54.2688  -20.8460 O   0  0  0  0  0  0  0  0  0  0  0  0
    0.3400  -54.5013  -20.9529 O   0  0  0  0  0  0  0  0  0  0  0  0
   -0.6602  -52.6949  -19.3104 C   0  0  0  0  0  0  0  0  0  0  0  0
   -1.3795  -53.1286  -18.1915 C   0  0  0  0  0  0  0  0  0  0  0  0
   -1.2300  -52.4533  -17.0145 C   0  0  0  0  0  0  0  0  0  0  0  0
   -0.3856  -51.3597  -16.9203 C   0  0  0  0  0  0  0  0  0  0  0  0
   -0.2067  -50.5066  -15.4094 Cl  0  0  0  0  0  0  0  0  0  0  0  0
    0.3300  -50.9259  -18.0286 C   0  0  0  0  0  0  0  0  0  0  0  0
    1.3823  -49.5447  -17.8664 Cl  0  0  0  0  0  0  0  0  0  0  0  0
    0.1796  -51.6116  -19.2268 C   0  0  0  0  0  0  0  0  0  0  0  0
    1.9126  -51.8070  -22.0750 O   0  0  0  0  0  0  0  0  0  0  0  0
    3.2454  -47.8320  -22.2380 C   0  0  0  0  0  0  0  0  0  0  0  0
    1.9157  -48.1303  -21.9047 C   0  0  0  0  0  0  0  0  0  0  0  0
    1.4864  -49.4445  -21.8545 C   0  0  0  0  0  0  0  0  0  0  0  0
    2.3358  -50.4906  -22.1253 C   0  0  0  0  0  0  0  0  0  0  0  0
    3.6316  -50.1724  -22.4492 C   0  0  0  0  0  0  0  0  0  0  0  0
    4.0863  -48.8660  -22.5066 C   0  0  0  0  0  0  0  0  0  0  0  0
    3.7546  -45.7789  -21.1754 O   0  0  0  0  0  0  0  0  0  0  0  0
    3.6801  -46.4441  -22.2721 C   0  0  0  0  0  0  0  0  0  0  0  0
    4.0298  -45.7802  -23.4651 N   0  0  0  0  0  0  0  0  0  0  0  0
    3.9593  -46.3441  -24.3476 H   0  0  0  0  0  0  0  0  0  0  0  0
    4.4655  -44.4185  -23.5900 C   0  0  0  0  0  0  0  0  0  0  0  0
    5.6091  -44.3458  -24.5641 C   0  0  0  0  0  0  0  0  0  0  0  0
    5.2920  -43.4468  -25.6360 N   0  0  0  0  0  0  0  0  0  0  0  0
    4.1216  -43.7602  -26.3818 C   0  0  0  0  0  0  0  0  0  0  0  0
    4.5733  -44.2967  -27.7300 C   0  0  0  0  0  0  0  0  0  0  0  0
    5.9166  -43.6472  -27.9032 C   0  0  0  0  0  0  0  0  0  0  0  0
    6.3629  -43.1799  -26.5426 C   0  0  0  0  0  0  0  0  0  0  0  0
 28 29  2  0  0  0
 29 30  1  0  0  0
 30 32  1  0  0  0
 32 33  1  0  0  0
 33 34  1  0  0  0
 34 35  1  0  0  0
 35 36  1  0  0  0
 36 37  1  0  0  0
 37 38  1  0  0  0
 29 22  1  0  0  0
 22 23  2  0  0  0
 23 24  1  0  0  0
 24 25  2  0  0  0
 25 21  1  0  0  0
 21  1  1  0  0  0
  1  2  2  0  0  0
  2  3  1  0  0  0
  3  4  2  0  0  0
  4  5  1  0  0  0
  4  6  1  0  0  0
  6  7  2  0  0  0
  7  8  1  0  0  0
  8 10  1  0  0  0
 10 11  2  0  0  0
 10 12  2  0  0  0
 10 13  1  0  0  0
 13 14  2  0  0  0
 14 15  1  0  0  0
 15 16  2  0  0  0
 16 17  1  0  0  0
 16 18  1  0  0  0
 18 19  1  0  0  0
 18 20  2  0  0  0
 25 26  1  0  0  0
 26 27  2  0  0  0
 38 34  1  0  0  0
 27 22  1  0  0  0
  7  1  1  0  0  0
 20 13  1  0  0  0
 30 31  1  0  0  0
  8  9  1  0  0  0
M  END
> <minimizedAffinity>
-7.04666

> <CNNscore>
0.3487013578

> <CNNaffinity>
6.8116369247

> <CNN_VS>
2.3752269745

> <CNNaffinity_variance>
0.1044584736

$$$$
[H]c1nc(Oc2c([H])c([H])c(C(=O)N([H])C([H])([H])C([H])([H])N3C([H])([H])C([H])([H])C([H])([H])C3([H])[H])c([H])c2[H])c(N([H])S(=O)(=O)c2c([H])c([H])c(Cl)c(Cl)c2[H])c([H])c1Cl


 38 41  0  0  0  0  0  0  0  0999 V2000
    1.3157  -52.1136  -19.2942 C   0  0  0  0  0  0  0  0  0  0  0  0
    1.3293  -51.3200  -18.2081 N   0  0  0  0  0  0  0  0  0  0  0  0
    0.3094  -51.2965  -17.3452 C   0  0  0  0  0  0  0  0  0  0  0  0
   -0.7666  -52.0968  -17.5748 C   0  0  0  0  0  0  0  0  0  0  0  0
   -2.1013  -52.0582  -16.4356 Cl  0  0  0  0  0  0  0  0  0  0  0  0
   -0.8016  -52.9326  -18.7013 C   0  0  0  0  0  0  0  0  0  0  0  0
    0.2564  -52.9417  -19.5768 C   0  0  0  0  0  0  0  0  0  0  0  0
    0.3223  -53.7652  -20.7241 N   0  0  0  0  0  0  0  0  0  0  0  0
    1.0819  -54.5019  -20.8201 H   0  0  0  0  0  0  0  0  0  0  0  0
   -0.8330  -53.5781  -21.9773 S   0  0  0  0  0  0  0  0  0  0  0  0
   -1.8178  -54.7378  -21.9012 O   0  0  0  0  0  0  0  0  0  0  0  0
   -1.5884  -52.2792  -21.7056 O   0  0  0  0  0  0  0  0  0  0  0  0
   -0.1851  -53.5062  -23.5729 C   0  0  0  0  0  0  0  0  0  0  0  0
   -0.4944  -54.4886  -24.5199 C   0  0  0  0  0  0  0  0  0  0  0  0
    0.0468  -54.3877  -25.7691 C   0  0  0  0  0  0  0  0  0  0  0  0
    0.8862  -53.3377  -26.1016 C   0  0  0  0  0  0  0  0  0  0  0  0
    1.5710  -53.2239  -27.7019 Cl  0  0  0  0  0  0  0  0  0  0  0  0
    1.1959  -52.3606  -25.1646 C   0  0  0  0  0  0  0  0  0  0  0  0
    2.2569  -51.0553  -25.6248 Cl  0  0  0  0  0  0  0  0  0  0  0  0
    0.6462  -52.4611  -23.8932 C   0  0  0  0  0  0  0  0  0  0  0  0
    2.4221  -52.0811  -20.1496 O   0  0  0  0  0  0  0  0  0  0  0  0
    2.9772  -48.8764  -22.8002 C   0  0  0  0  0  0  0  0  0  0  0  0
    3.9986  -49.8131  -22.5823 C   0  0  0  0  0  0  0  0  0  0  0  0
    3.8054  -50.8658  -21.7056 C   0  0  0  0  0  0  0  0  0  0  0  0
    2.6217  -51.0294  -21.0264 C   0  0  0  0  0  0  0  0  0  0  0  0
    1.6382  -50.0994  -21.2565 C   0  0  0  0  0  0  0  0  0  0  0  0
    1.8061  -49.0371  -22.1283 C   0  0  0  0  0  0  0  0  0  0  0  0
    2.8968  -46.5847  -23.3877 O   0  0  0  0  0  0  0  0  0  0  0  0
    3.1959  -47.7846  -23.7363 C   0  0  0  0  0  0  0  0  0  0  0  0
    3.7277  -47.9776  -25.0272 N   0  0  0  0  0  0  0  0  0  0  0  0
    3.9624  -48.9665  -25.2892 H   0  0  0  0  0  0  0  0  0  0  0  0
    3.9738  -46.9624  -26.0114 C   0  0  0  0  0  0  0  0  0  0  0  0
    3.2770  -47.3279  -27.2931 C   0  0  0  0  0  0  0  0  0  0  0  0
    3.6801  -46.4427  -28.3474 N   0  0  0  0  0  0  0  0  0  0  0  0
    2.7532  -45.4170  -28.6836 C   0  0  0  0  0  0  0  0  0  0  0  0
    2.1255  -45.7920  -30.0159 C   0  0  0  0  0  0  0  0  0  0  0  0
    3.1909  -46.6417  -30.6478 C   0  0  0  0  0  0  0  0  0  0  0  0
    4.1178  -47.0844  -29.5460 C   0  0  0  0  0  0  0  0  0  0  0  0
 28 29  2  0  0  0
 29 30  1  0  0  0
 30 32  1  0  0  0
 32 33  1  0  0  0
 33 34  1  0  0  0
 34 35  1  0  0  0
 35 36  1  0  0  0
 36 37  1  0  0  0
 37 38  1  0  0  0
 29 22  1  0  0  0
 22 23  2  0  0  0
 23 24  1  0  0  0
 24 25  2  0  0  0
 25 21  1  0  0  0
 21  1  1  0  0  0
  1  2  2  0  0  0
  2  3  1  0  0  0
  3  4  2  0  0  0
  4  5  1  0  0  0
  4  6  1  0  0  0
  6  7  2  0  0  0
  7  8  1  0  0  0
  8 10  1  0  0  0
 10 11  2  0  0  0
 10 12  2  0  0  0
 10 13  1  0  0  0
 13 14  2  0  0  0
 14 15  1  0  0  0
 15 16  2  0  0  0
 16 17  1  0  0  0
 16 18  1  0  0  0
 18 19  1  0  0  0
 18 20  2  0  0  0
 25 26  1  0  0  0
 26 27  2  0  0  0
 38 34  1  0  0  0
 27 22  1  0  0  0
  7  1  1  0  0  0
 20 13  1  0  0  0
 30 31  1  0  0  0
  8  9  1  0  0  0
M  END
> <minimizedAffinity>
-7.64524

> <CNNscore>
0.3189681172

> <CNNaffinity>
7.1232590675

> <CNN_VS>
2.2720925808

> <CNNaffinity_variance>
0.2009598315

$$$$
[H]c1nc(Oc2c([H])c([H])c(C(=O)N([H])C([H])([H])C([H])([H])N3C([H])([H])C([H])([H])C([H])([H])C3([H])[H])c([H])c2[H])c(N([H])S(=O)(=O)c2c([H])c([H])c(Cl)c(Cl)c2[H])c([H])c1Cl


 38 41  0  0  0  0  0  0  0  0999 V2000
    1.0530  -51.7089  -19.1015 C   0  0  0  0  0  0  0  0  0  0  0  0
    0.9329  -50.8568  -18.0674 N   0  0  0  0  0  0  0  0  0  0  0  0
   -0.0598  -50.9679  -17.1801 C   0  0  0  0  0  0  0  0  0  0  0  0
   -0.9687  -51.9693  -17.3302 C   0  0  0  0  0  0  0  0  0  0  0  0
   -2.2692  -52.1063  -16.1595 Cl  0  0  0  0  0  0  0  0  0  0  0  0
   -0.8623  -52.8693  -18.4013 C   0  0  0  0  0  0  0  0  0  0  0  0
    0.1650  -52.7377  -19.3031 C   0  0  0  0  0  0  0  0  0  0  0  0
    0.3678  -53.6082  -20.3986 N   0  0  0  0  0  0  0  0  0  0  0  0
    1.0766  -54.3976  -20.3401 H   0  0  0  0  0  0  0  0  0  0  0  0
   -0.5366  -53.3931  -21.8393 S   0  0  0  0  0  0  0  0  0  0  0  0
   -1.4789  -54.5794  -21.9978 O   0  0  0  0  0  0  0  0  0  0  0  0
   -1.3724  -52.1273  -21.6638 O   0  0  0  0  0  0  0  0  0  0  0  0
    0.3972  -53.2321  -23.2791 C   0  0  0  0  0  0  0  0  0  0  0  0
    1.6102  -52.5350  -23.2758 C   0  0  0  0  0  0  0  0  0  0  0  0
    2.3107  -52.4335  -24.4431 C   0  0  0  0  0  0  0  0  0  0  0  0
    1.8380  -53.0057  -25.6123 C   0  0  0  0  0  0  0  0  0  0  0  0
    2.7442  -52.8657  -27.0961 Cl  0  0  0  0  0  0  0  0  0  0  0  0
    0.6343  -53.6983  -25.6200 C   0  0  0  0  0  0  0  0  0  0  0  0
    0.0756  -54.4036  -27.1139 Cl  0  0  0  0  0  0  0  0  0  0  0  0
   -0.0798  -53.8030  -24.4335 C   0  0  0  0  0  0  0  0  0  0  0  0
    2.1202  -51.5260  -19.9872 O   0  0  0  0  0  0  0  0  0  0  0  0
    2.7894  -47.8024  -21.8012 C   0  0  0  0  0  0  0  0  0  0  0  0
    3.8621  -48.5762  -21.3332 C   0  0  0  0  0  0  0  0  0  0  0  0
    3.6302  -49.8025  -20.7360 C   0  0  0  0  0  0  0  0  0  0  0  0
    2.3581  -50.2997  -20.5822 C   0  0  0  0  0  0  0  0  0  0  0  0
    1.3258  -49.5234  -21.0479 C   0  0  0  0  0  0  0  0  0  0  0  0
    1.5307  -48.2932  -21.6490 C   0  0  0  0  0  0  0  0  0  0  0  0
    3.9431  -45.7398  -21.9368 O   0  0  0  0  0  0  0  0  0  0  0  0
    3.0557  -46.5221  -22.4383 C   0  0  0  0  0  0  0  0  0  0  0  0
    2.3800  -46.0877  -23.5964 N   0  0  0  0  0  0  0  0  0  0  0  0
    1.6589  -46.7433  -23.9861 H   0  0  0  0  0  0  0  0  0  0  0  0
    2.5777  -44.8450  -24.2865 C   0  0  0  0  0  0  0  0  0  0  0  0
    3.4133  -45.0813  -25.5145 C   0  0  0  0  0  0  0  0  0  0  0  0
    2.8657  -46.1578  -26.2883 N   0  0  0  0  0  0  0  0  0  0  0  0
    3.8093  -47.0774  -26.8253 C   0  0  0  0  0  0  0  0  0  0  0  0
    3.9015  -46.8120  -28.3188 C   0  0  0  0  0  0  0  0  0  0  0  0
    2.5540  -46.2242  -28.6269 C   0  0  0  0  0  0  0  0  0  0  0  0
    1.9603  -45.7652  -27.3208 C   0  0  0  0  0  0  0  0  0  0  0  0
 28 29  2  0  0  0
 29 30  1  0  0  0
 30 32  1  0  0  0
 32 33  1  0  0  0
 33 34  1  0  0  0
 34 35  1  0  0  0
 35 36  1  0  0  0
 36 37  1  0  0  0
 37 38  1  0  0  0
 29 22  1  0  0  0
 22 23  2  0  0  0
 23 24  1  0  0  0
 24 25  2  0  0  0
 25 21  1  0  0  0
 21  1  1  0  0  0
  1  2  2  0  0  0
  2  3  1  0  0  0
  3  4  2  0  0  0
  4  5  1  0  0  0
  4  6  1  0  0  0
  6  7  2  0  0  0
  7  8  1  0  0  0
  8 10  1  0  0  0
 10 11  2  0  0  0
 10 12  2  0  0  0
 10 13  1  0  0  0
 13 14  2  0  0  0
 14 15  1  0  0  0
 15 16  2  0  0  0
 16 17  1  0  0  0
 16 18  1  0  0  0
 18 19  1  0  0  0
 18 20  2  0  0  0
 25 26  1  0  0  0
 26 27  2  0  0  0
 38 34  1  0  0  0
 27 22  1  0  0  0
  7  1  1  0  0  0
 20 13  1  0  0  0
 30 31  1  0  0  0
  8  9  1  0  0  0
M  END
> <minimizedAffinity>
-7.79975

> <CNNscore>
0.2435999662

> <CNNaffinity>
6.9678444862

> <CNN_VS>
1.6973667145

> <CNNaffinity_variance>
0.2448573411

$$$$
[H]c1nc(Oc2c([H])c([H])c(C(=O)N([H])C([H])([H])C([H])([H])N3C([H])([H])C([H])([H])C([H])([H])C3([H])[H])c([H])c2[H])c(N([H])S(=O)(=O)c2c([H])c([H])c(Cl)c(Cl)c2[H])c([H])c1Cl


 38 41  0  0  0  0  0  0  0  0999 V2000
    1.3915  -52.4556  -23.1460 C   0  0  0  0  0  0  0  0  0  0  0  0
    2.2549  -52.6995  -24.1483 N   0  0  0  0  0  0  0  0  0  0  0  0
    1.8565  -53.2554  -25.2961 C   0  0  0  0  0  0  0  0  0  0  0  0
    0.5443  -53.5805  -25.4502 C   0  0  0  0  0  0  0  0  0  0  0  0
    0.0312  -54.3107  -26.9616 Cl  0  0  0  0  0  0  0  0  0  0  0  0
   -0.3735  -53.3347  -24.4177 C   0  0  0  0  0  0  0  0  0  0  0  0
    0.0561  -52.7631  -23.2453 C   0  0  0  0  0  0  0  0  0  0  0  0
   -0.7964  -52.4565  -22.1599 N   0  0  0  0  0  0  0  0  0  0  0  0
   -1.4098  -51.5892  -22.1803 H   0  0  0  0  0  0  0  0  0  0  0  0
   -0.8455  -53.4912  -20.7935 S   0  0  0  0  0  0  0  0  0  0  0  0
   -2.1650  -54.2520  -20.8130 O   0  0  0  0  0  0  0  0  0  0  0  0
    0.2968  -54.4933  -20.9440 O   0  0  0  0  0  0  0  0  0  0  0  0
   -0.6820  -52.7063  -19.2677 C   0  0  0  0  0  0  0  0  0  0  0  0
   -1.3735  -53.1688  -18.1428 C   0  0  0  0  0  0  0  0  0  0  0  0
   -1.2122  -52.5102  -16.9580 C   0  0  0  0  0  0  0  0  0  0  0  0
   -0.3829  -51.4054  -16.8617 C   0  0  0  0  0  0  0  0  0  0  0  0
   -0.1886  -50.5738  -15.3406 Cl  0  0  0  0  0  0  0  0  0  0  0  0
    0.3052  -50.9428  -17.9758 C   0  0  0  0  0  0  0  0  0  0  0  0
    1.3392  -49.5483  -17.8107 Cl  0  0  0  0  0  0  0  0  0  0  0  0
    0.1427  -51.6115  -19.1821 C   0  0  0  0  0  0  0  0  0  0  0  0
    1.8866  -51.8708  -21.9756 O   0  0  0  0  0  0  0  0  0  0  0  0
    3.4714  -47.9860  -21.9647 C   0  0  0  0  0  0  0  0  0  0  0  0
    2.0883  -48.1969  -22.0695 C   0  0  0  0  0  0  0  0  0  0  0  0
    1.5762  -49.4821  -22.0728 C   0  0  0  0  0  0  0  0  0  0  0  0
    2.3931  -50.5832  -21.9745 C   0  0  0  0  0  0  0  0  0  0  0  0
    3.7425  -50.3502  -21.8735 C   0  0  0  0  0  0  0  0  0  0  0  0
    4.2803  -49.0745  -21.8680 C   0  0  0  0  0  0  0  0  0  0  0  0
    3.2488  -45.6650  -22.3739 O   0  0  0  0  0  0  0  0  0  0  0  0
    3.9883  -46.6263  -21.9495 C   0  0  0  0  0  0  0  0  0  0  0  0
    5.2792  -46.3029  -21.4857 N   0  0  0  0  0  0  0  0  0  0  0  0
    5.8646  -47.1052  -21.1458 H   0  0  0  0  0  0  0  0  0  0  0  0
    5.8679  -44.9949  -21.4369 C   0  0  0  0  0  0  0  0  0  0  0  0
    6.5248  -44.7907  -20.0995 C   0  0  0  0  0  0  0  0  0  0  0  0
    7.9240  -44.5238  -20.2691 N   0  0  0  0  0  0  0  0  0  0  0  0
    8.6667  -45.5238  -20.9566 C   0  0  0  0  0  0  0  0  0  0  0  0
    9.5156  -46.2477  -19.9247 C   0  0  0  0  0  0  0  0  0  0  0  0
    9.6910  -45.2032  -18.8596 C   0  0  0  0  0  0  0  0  0  0  0  0
    8.6231  -44.1633  -19.0769 C   0  0  0  0  0  0  0  0  0  0  0  0
 28 29  2  0  0  0
 29 30  1  0  0  0
 30 32  1  0  0  0
 32 33  1  0  0  0
 33 34  1  0  0  0
 34 35  1  0  0  0
 35 36  1  0  0  0
 36 37  1  0  0  0
 37 38  1  0  0  0
 29 22  1  0  0  0
 22 23  2  0  0  0
 23 24  1  0  0  0
 24 25  2  0  0  0
 25 21  1  0  0  0
 21  1  1  0  0  0
  1  2  2  0  0  0
  2  3  1  0  0  0
  3  4  2  0  0  0
  4  5  1  0  0  0
  4  6  1  0  0  0
  6  7  2  0  0  0
  7  8  1  0  0  0
  8 10  1  0  0  0
 10 11  2  0  0  0
 10 12  2  0  0  0
 10 13  1  0  0  0
 13 14  2  0  0  0
 14 15  1  0  0  0
 15 16  2  0  0  0
 16 17  1  0  0  0
 16 18  1  0  0  0
 18 19  1  0  0  0
 18 20  2  0  0  0
 25 26  1  0  0  0
 26 27  2  0  0  0
 38 34  1  0  0  0
 27 22  1  0  0  0
  7  1  1  0  0  0
 20 13  1  0  0  0
 30 31  1  0  0  0
  8  9  1  0  0  0
M  END
> <minimizedAffinity>
-6.64564

> <CNNscore>
0.2037507147

> <CNNaffinity>
6.5290689468

> <CNN_VS>
1.3303024769

> <CNNaffinity_variance>
0.1239046305

$$$$
[H]c1nc(Oc2c([H])c([H])c(C(=O)N([H])C([H])([H])C([H])([H])N3C([H])([H])C([H])([H])C([H])([H])C3([H])[H])c([H])c2[H])c(N([H])S(=O)(=O)c2c([H])c([H])c(Cl)c(Cl)c2[H])c([H])c1Cl


 38 41  0  0  0  0  0  0  0  0999 V2000
    3.0281  -50.0705  -22.0703 C   0  0  0  0  0  0  0  0  0  0  0  0
    3.6141  -49.8025  -20.8895 N   0  0  0  0  0  0  0  0  0  0  0  0
    2.9246  -49.8215  -19.7451 C   0  0  0  0  0  0  0  0  0  0  0  0
    1.5977  -50.1201  -19.7803 C   0  0  0  0  0  0  0  0  0  0  0  0
    0.7009  -50.1421  -18.2717 Cl  0  0  0  0  0  0  0  0  0  0  0  0
    0.9662  -50.4031  -21.0009 C   0  0  0  0  0  0  0  0  0  0  0  0
    1.6923  -50.3776  -22.1663 C   0  0  0  0  0  0  0  0  0  0  0  0
    1.1502  -50.6710  -23.4387 N   0  0  0  0  0  0  0  0  0  0  0  0
    0.7375  -49.9008  -24.0430 H   0  0  0  0  0  0  0  0  0  0  0  0
    1.1561  -52.2848  -24.0181 S   0  0  0  0  0  0  0  0  0  0  0  0
    2.5580  -52.8542  -23.8424 O   0  0  0  0  0  0  0  0  0  0  0  0
    0.1929  -53.0831  -23.1426 O   0  0  0  0  0  0  0  0  0  0  0  0
    0.6823  -52.4791  -25.6639 C   0  0  0  0  0  0  0  0  0  0  0  0
    1.6303  -52.7383  -26.6597 C   0  0  0  0  0  0  0  0  0  0  0  0
    1.2041  -52.8811  -27.9488 C   0  0  0  0  0  0  0  0  0  0  0  0
   -0.1377  -52.7733  -28.2739 C   0  0  0  0  0  0  0  0  0  0  0  0
   -0.6661  -52.9569  -29.9261 Cl  0  0  0  0  0  0  0  0  0  0  0  0
   -1.0819  -52.5160  -27.2885 C   0  0  0  0  0  0  0  0  0  0  0  0
   -2.7612  -52.3880  -27.7411 Cl  0  0  0  0  0  0  0  0  0  0  0  0
   -0.6505  -52.3705  -25.9765 C   0  0  0  0  0  0  0  0  0  0  0  0
    3.8183  -50.0304  -23.2238 O   0  0  0  0  0  0  0  0  0  0  0  0
    3.2246  -47.1443  -26.2107 C   0  0  0  0  0  0  0  0  0  0  0  0
    3.3169  -46.7723  -24.8611 C   0  0  0  0  0  0  0  0  0  0  0  0
    3.5121  -47.7322  -23.8840 C   0  0  0  0  0  0  0  0  0  0  0  0
    3.6215  -49.0662  -24.1965 C   0  0  0  0  0  0  0  0  0  0  0  0
    3.5274  -49.4044  -25.5239 C   0  0  0  0  0  0  0  0  0  0  0  0
    3.3321  -48.4637  -26.5208 C   0  0  0  0  0  0  0  0  0  0  0  0
    2.9970  -44.8828  -26.8723 O   0  0  0  0  0  0  0  0  0  0  0  0
    3.0328  -46.1181  -27.2238 C   0  0  0  0  0  0  0  0  0  0  0  0
    2.8819  -46.4131  -28.5937 N   0  0  0  0  0  0  0  0  0  0  0  0
    2.9131  -47.4291  -28.8556 H   0  0  0  0  0  0  0  0  0  0  0  0
    2.6875  -45.4678  -29.6558 C   0  0  0  0  0  0  0  0  0  0  0  0
    3.6760  -45.7401  -30.7561 C   0  0  0  0  0  0  0  0  0  0  0  0
    3.3470  -46.9643  -31.4275 N   0  0  0  0  0  0  0  0  0  0  0  0
    4.4458  -47.6899  -31.9666 C   0  0  0  0  0  0  0  0  0  0  0  0
    4.4041  -47.5202  -33.4763 C   0  0  0  0  0  0  0  0  0  0  0  0
    2.9459  -47.2679  -33.7335 C   0  0  0  0  0  0  0  0  0  0  0  0
    2.3280  -46.8571  -32.4226 C   0  0  0  0  0  0  0  0  0  0  0  0
 28 29  2  0  0  0
 29 30  1  0  0  0
 30 32  1  0  0  0
 32 33  1  0  0  0
 33 34  1  0  0  0
 34 35  1  0  0  0
 35 36  1  0  0  0
 36 37  1  0  0  0
 37 38  1  0  0  0
 29 22  1  0  0  0
 22 23  2  0  0  0
 23 24  1  0  0  0
 24 25  2  0  0  0
 25 21  1  0  0  0
 21  1  1  0  0  0
  1  2  2  0  0  0
  2  3  1  0  0  0
  3  4  2  0  0  0
  4  5  1  0  0  0
  4  6  1  0  0  0
  6  7  2  0  0  0
  7  8  1  0  0  0
  8 10  1  0  0  0
 10 11  2  0  0  0
 10 12  2  0  0  0
 10 13  1  0  0  0
 13 14  2  0  0  0
 14 15  1  0  0  0
 15 16  2  0  0  0
 16 17  1  0  0  0
 16 18  1  0  0  0
 18 19  1  0  0  0
 18 20  2  0  0  0
 25 26  1  0  0  0
 26 27  2  0  0  0
 38 34  1  0  0  0
 27 22  1  0  0  0
  7  1  1  0  0  0
 20 13  1  0  0  0
 30 31  1  0  0  0
  8  9  1  0  0  0
M  END
> <minimizedAffinity>
-7.81404

> <CNNscore>
0.1476520002

> <CNNaffinity>
6.5351548195

> <CNN_VS>
0.9649286866

> <CNNaffinity_variance>
0.7496396899

$$$$
[H]c1nc(Oc2c([H])c([H])c(C(=O)N([H])C([H])([H])C([H])([H])N3C([H])([H])C([H])([H])C([H])([H])C3([H])[H])c([H])c2[H])c(N([H])S(=O)(=O)c2c([H])c([H])c(Cl)c(Cl)c2[H])c([H])c1Cl


 38 41  0  0  0  0  0  0  0  0999 V2000
    4.7827  -49.8962  -20.3341 C   0  0  0  0  0  0  0  0  0  0  0  0
    5.6645  -48.8964  -20.5139 N   0  0  0  0  0  0  0  0  0  0  0  0
    5.5343  -47.7259  -19.8828 C   0  0  0  0  0  0  0  0  0  0  0  0
    4.4827  -47.5459  -19.0385 C   0  0  0  0  0  0  0  0  0  0  0  0
    4.3205  -46.0046  -18.2147 Cl  0  0  0  0  0  0  0  0  0  0  0  0
    3.5512  -48.5755  -18.8360 C   0  0  0  0  0  0  0  0  0  0  0  0
    3.7022  -49.7710  -19.4947 C   0  0  0  0  0  0  0  0  0  0  0  0
    2.8301  -50.8726  -19.3374 N   0  0  0  0  0  0  0  0  0  0  0  0
    3.2019  -51.8191  -19.0297 H   0  0  0  0  0  0  0  0  0  0  0  0
    1.1536  -50.6853  -19.6449 S   0  0  0  0  0  0  0  0  0  0  0  0
    0.4309  -50.5568  -18.3101 O   0  0  0  0  0  0  0  0  0  0  0  0
    0.9790  -49.3819  -20.4208 O   0  0  0  0  0  0  0  0  0  0  0  0
    0.4230  -51.9579  -20.5492 C   0  0  0  0  0  0  0  0  0  0  0  0
   -0.5055  -52.8205  -19.9565 C   0  0  0  0  0  0  0  0  0  0  0  0
   -1.0534  -53.8145  -20.7151 C   0  0  0  0  0  0  0  0  0  0  0  0
   -0.7032  -53.9738  -22.0454 C   0  0  0  0  0  0  0  0  0  0  0  0
   -1.4111  -55.2500  -23.0008 Cl  0  0  0  0  0  0  0  0  0  0  0  0
    0.2182  -53.1199  -22.6375 C   0  0  0  0  0  0  0  0  0  0  0  0
    0.6310  -53.3555  -24.3154 Cl  0  0  0  0  0  0  0  0  0  0  0  0
    0.7766  -52.1078  -21.8677 C   0  0  0  0  0  0  0  0  0  0  0  0
    4.9886  -51.0915  -21.0311 O   0  0  0  0  0  0  0  0  0  0  0  0
    3.6616  -51.5095  -24.9894 C   0  0  0  0  0  0  0  0  0  0  0  0
    4.4861  -52.4809  -24.4022 C   0  0  0  0  0  0  0  0  0  0  0  0
    4.9186  -52.3330  -23.0964 C   0  0  0  0  0  0  0  0  0  0  0  0
    4.5604  -51.2440  -22.3380 C   0  0  0  0  0  0  0  0  0  0  0  0
    3.7535  -50.3075  -22.9356 C   0  0  0  0  0  0  0  0  0  0  0  0
    3.3072  -50.4317  -24.2402 C   0  0  0  0  0  0  0  0  0  0  0  0
    2.9624  -50.6590  -27.0850 O   0  0  0  0  0  0  0  0  0  0  0  0
    3.2068  -51.6907  -26.3593 C   0  0  0  0  0  0  0  0  0  0  0  0
    3.0174  -52.9601  -26.9417 N   0  0  0  0  0  0  0  0  0  0  0  0
    3.2220  -53.7871  -26.3285 H   0  0  0  0  0  0  0  0  0  0  0  0
    2.5719  -53.2297  -28.2790 C   0  0  0  0  0  0  0  0  0  0  0  0
    1.1452  -53.7044  -28.2457 C   0  0  0  0  0  0  0  0  0  0  0  0
    0.2502  -52.6026  -28.4529 N   0  0  0  0  0  0  0  0  0  0  0  0
   -0.3564  -52.0685  -27.2819 C   0  0  0  0  0  0  0  0  0  0  0  0
   -1.8114  -52.5071  -27.2848 C   0  0  0  0  0  0  0  0  0  0  0  0
   -2.0895  -52.6964  -28.7487 C   0  0  0  0  0  0  0  0  0  0  0  0
   -0.7576  -52.8157  -29.4422 C   0  0  0  0  0  0  0  0  0  0  0  0
 28 29  2  0  0  0
 29 30  1  0  0  0
 30 32  1  0  0  0
 32 33  1  0  0  0
 33 34  1  0  0  0
 34 35  1  0  0  0
 35 36  1  0  0  0
 36 37  1  0  0  0
 37 38  1  0  0  0
 29 22  1  0  0  0
 22 23  2  0  0  0
 23 24  1  0  0  0
 24 25  2  0  0  0
 25 21  1  0  0  0
 21  1  1  0  0  0
  1  2  2  0  0  0
  2  3  1  0  0  0
  3  4  2  0  0  0
  4  5  1  0  0  0
  4  6  1  0  0  0
  6  7  2  0  0  0
  7  8  1  0  0  0
  8 10  1  0  0  0
 10 11  2  0  0  0
 10 12  2  0  0  0
 10 13  1  0  0  0
 13 14  2  0  0  0
 14 15  1  0  0  0
 15 16  2  0  0  0
 16 17  1  0  0  0
 16 18  1  0  0  0
 18 19  1  0  0  0
 18 20  2  0  0  0
 25 26  1  0  0  0
 26 27  2  0  0  0
 38 34  1  0  0  0
 27 22  1  0  0  0
  7  1  1  0  0  0
 20 13  1  0  0  0
 30 31  1  0  0  0
  8  9  1  0  0  0
M  END
> <minimizedAffinity>
-8.10726

> <CNNscore>
0.1181650609

> <CNNaffinity>
7.0373945236

> <CNN_VS>
0.8315741420

> <CNNaffinity_variance>
0.4027101099

$$$$
[H]c1nc(Oc2c([H])c([H])c(C(=O)N([H])C([H])([H])C([H])([H])N3C([H])([H])C([H])([H])C([H])([H])C3([H])[H])c([H])c2[H])c(N([H])S(=O)(=O)c2c([H])c([H])c(Cl)c(Cl)c2[H])c([H])c1Cl


 38 41  0  0  0  0  0  0  0  0999 V2000
   -0.3144  -53.3425  -24.8734 C   0  0  0  0  0  0  0  0  0  0  0  0
   -1.5272  -53.1113  -25.4078 N   0  0  0  0  0  0  0  0  0  0  0  0
   -1.6743  -52.7808  -26.6940 C   0  0  0  0  0  0  0  0  0  0  0  0
   -0.5675  -52.6773  -27.4785 C   0  0  0  0  0  0  0  0  0  0  0  0
   -0.7716  -52.2422  -29.1666 Cl  0  0  0  0  0  0  0  0  0  0  0  0
    0.7071  -52.9144  -26.9419 C   0  0  0  0  0  0  0  0  0  0  0  0
    0.8373  -53.2522  -25.6172 C   0  0  0  0  0  0  0  0  0  0  0  0
    2.0749  -53.5321  -24.9937 N   0  0  0  0  0  0  0  0  0  0  0  0
    2.1396  -54.2528  -24.2158 H   0  0  0  0  0  0  0  0  0  0  0  0
    3.4901  -52.7030  -25.4939 S   0  0  0  0  0  0  0  0  0  0  0  0
    4.6418  -53.1297  -24.5928 O   0  0  0  0  0  0  0  0  0  0  0  0
    3.7962  -53.1513  -26.9210 O   0  0  0  0  0  0  0  0  0  0  0  0
    3.3820  -50.9828  -25.4762 C   0  0  0  0  0  0  0  0  0  0  0  0
    3.3110  -50.2541  -26.6685 C   0  0  0  0  0  0  0  0  0  0  0  0
    3.2297  -48.8931  -26.6006 C   0  0  0  0  0  0  0  0  0  0  0  0
    3.2171  -48.2379  -25.3806 C   0  0  0  0  0  0  0  0  0  0  0  0
    3.1143  -46.4980  -25.3108 Cl  0  0  0  0  0  0  0  0  0  0  0  0
    3.2876  -48.9574  -24.1948 C   0  0  0  0  0  0  0  0  0  0  0  0
    3.2688  -48.0930  -22.6803 Cl  0  0  0  0  0  0  0  0  0  0  0  0
    3.3702  -50.3421  -24.2616 C   0  0  0  0  0  0  0  0  0  0  0  0
   -0.2439  -53.6839  -23.5188 O   0  0  0  0  0  0  0  0  0  0  0  0
    0.7932  -50.8842  -20.5709 C   0  0  0  0  0  0  0  0  0  0  0  0
    0.5866  -50.4844  -21.8998 C   0  0  0  0  0  0  0  0  0  0  0  0
    0.2456  -51.4160  -22.8642 C   0  0  0  0  0  0  0  0  0  0  0  0
    0.0986  -52.7480  -22.5589 C   0  0  0  0  0  0  0  0  0  0  0  0
    0.3066  -53.1137  -21.2519 C   0  0  0  0  0  0  0  0  0  0  0  0
    0.6486  -52.2017  -20.2680 C   0  0  0  0  0  0  0  0  0  0  0  0
    1.2894  -48.6615  -19.9250 O   0  0  0  0  0  0  0  0  0  0  0  0
    1.1379  -49.8869  -19.5695 C   0  0  0  0  0  0  0  0  0  0  0  0
    1.3172  -50.1998  -18.2071 N   0  0  0  0  0  0  0  0  0  0  0  0
    1.1897  -51.2074  -17.9419 H   0  0  0  0  0  0  0  0  0  0  0  0
    1.6581  -49.2833  -17.1566 C   0  0  0  0  0  0  0  0  0  0  0  0
    0.8923  -49.6401  -15.9124 C   0  0  0  0  0  0  0  0  0  0  0  0
   -0.5149  -49.4636  -16.1276 N   0  0  0  0  0  0  0  0  0  0  0  0
   -1.0869  -48.2923  -15.5572 C   0  0  0  0  0  0  0  0  0  0  0  0
   -1.9078  -48.7281  -14.3548 C   0  0  0  0  0  0  0  0  0  0  0  0
   -2.2751  -50.1410  -14.7085 C   0  0  0  0  0  0  0  0  0  0  0  0
   -1.3274  -50.5889  -15.7903 C   0  0  0  0  0  0  0  0  0  0  0  0
 28 29  2  0  0  0
 29 30  1  0  0  0
 30 32  1  0  0  0
 32 33  1  0  0  0
 33 34  1  0  0  0
 34 35  1  0  0  0
 35 36  1  0  0  0
 36 37  1  0  0  0
 37 38  1  0  0  0
 29 22  1  0  0  0
 22 23  2  0  0  0
 23 24  1  0  0  0
 24 25  2  0  0  0
 25 21  1  0  0  0
 21  1  1  0  0  0
  1  2  2  0  0  0
  2  3  1  0  0  0
  3  4  2  0  0  0
  4  5  1  0  0  0
  4  6  1  0  0  0
  6  7  2  0  0  0
  7  8  1  0  0  0
  8 10  1  0  0  0
 10 11  2  0  0  0
 10 12  2  0  0  0
 10 13  1  0  0  0
 13 14  2  0  0  0
 14 15  1  0  0  0
 15 16  2  0  0  0
 16 17  1  0  0  0
 16 18  1  0  0  0
 18 19  1  0  0  0
 18 20  2  0  0  0
 25 26  1  0  0  0
 26 27  2  0  0  0
 38 34  1  0  0  0
 27 22  1  0  0  0
  7  1  1  0  0  0
 20 13  1  0  0  0
 30 31  1  0  0  0
  8  9  1  0  0  0
M  END
> <minimizedAffinity>
-6.94346

> <CNNscore>
0.0951873884

> <CNNaffinity>
6.9072370529

> <CNN_VS>
0.6574818492

> <CNNaffinity_variance>
0.2685387433

$$$$
[H]c1nc(Oc2c([H])c([H])c(C(=O)N([H])C([H])([H])C([H])([H])N3C([H])([H])C([H])([H])C([H])([H])C3([H])[H])c([H])c2[H])c(N([H])S(=O)(=O)c2c([H])c([H])c(Cl)c(Cl)c2[H])c([H])c1Cl


 38 41  0  0  0  0  0  0  0  0999 V2000
    0.6067  -52.7111  -24.1478 C   0  0  0  0  0  0  0  0  0  0  0  0
   -0.2668  -53.6859  -24.4583 N   0  0  0  0  0  0  0  0  0  0  0  0
   -1.0476  -53.6083  -25.5398 C   0  0  0  0  0  0  0  0  0  0  0  0
   -0.9528  -52.5147  -26.3438 C   0  0  0  0  0  0  0  0  0  0  0  0
   -1.9831  -52.4222  -27.7617 Cl  0  0  0  0  0  0  0  0  0  0  0  0
   -0.0483  -51.4863  -26.0389 C   0  0  0  0  0  0  0  0  0  0  0  0
    0.7450  -51.5846  -24.9223 C   0  0  0  0  0  0  0  0  0  0  0  0
    1.7004  -50.6125  -24.5468 N   0  0  0  0  0  0  0  0  0  0  0  0
    1.4375  -49.8184  -23.8917 H   0  0  0  0  0  0  0  0  0  0  0  0
    3.3019  -50.7107  -25.1515 S   0  0  0  0  0  0  0  0  0  0  0  0
    3.4631  -52.0425  -25.8732 O   0  0  0  0  0  0  0  0  0  0  0  0
    3.4719  -49.5830  -26.1667 O   0  0  0  0  0  0  0  0  0  0  0  0
    4.5470  -50.5686  -23.9681 C   0  0  0  0  0  0  0  0  0  0  0  0
    4.2931  -50.8434  -22.6200 C   0  0  0  0  0  0  0  0  0  0  0  0
    5.3126  -50.7130  -21.7215 C   0  0  0  0  0  0  0  0  0  0  0  0
    6.5762  -50.3172  -22.1269 C   0  0  0  0  0  0  0  0  0  0  0  0
    7.8680  -50.1538  -20.9661 Cl  0  0  0  0  0  0  0  0  0  0  0  0
    6.8325  -50.0433  -23.4640 C   0  0  0  0  0  0  0  0  0  0  0  0
    8.4378  -49.5478  -23.9319 Cl  0  0  0  0  0  0  0  0  0  0  0  0
    5.7968  -50.1755  -24.3798 C   0  0  0  0  0  0  0  0  0  0  0  0
    1.3889  -52.8667  -22.9986 O   0  0  0  0  0  0  0  0  0  0  0  0
   -0.2517  -52.4774  -19.1567 C   0  0  0  0  0  0  0  0  0  0  0  0
   -0.5515  -53.5908  -19.9560 C   0  0  0  0  0  0  0  0  0  0  0  0
   -0.0056  -53.7090  -21.2217 C   0  0  0  0  0  0  0  0  0  0  0  0
    0.8387  -52.7531  -21.7342 C   0  0  0  0  0  0  0  0  0  0  0  0
    1.1161  -51.6733  -20.9327 C   0  0  0  0  0  0  0  0  0  0  0  0
    0.5829  -51.5310  -19.6629 C   0  0  0  0  0  0  0  0  0  0  0  0
   -1.9026  -53.0237  -17.5506 O   0  0  0  0  0  0  0  0  0  0  0  0
   -0.8254  -52.3788  -17.8235 C   0  0  0  0  0  0  0  0  0  0  0  0
   -0.2515  -51.6001  -16.7985 N   0  0  0  0  0  0  0  0  0  0  0  0
    0.6268  -51.0816  -17.0463 H   0  0  0  0  0  0  0  0  0  0  0  0
   -0.7493  -51.4453  -15.4614 C   0  0  0  0  0  0  0  0  0  0  0  0
   -1.3725  -50.0846  -15.3132 C   0  0  0  0  0  0  0  0  0  0  0  0
   -2.5700  -50.1696  -14.5282 N   0  0  0  0  0  0  0  0  0  0  0  0
   -3.3250  -51.3663  -14.6773 C   0  0  0  0  0  0  0  0  0  0  0  0
   -4.5643  -51.0226  -15.4869 C   0  0  0  0  0  0  0  0  0  0  0  0
   -4.7554  -49.5641  -15.1827 C   0  0  0  0  0  0  0  0  0  0  0  0
   -3.4492  -49.0492  -14.6371 C   0  0  0  0  0  0  0  0  0  0  0  0
 28 29  2  0  0  0
 29 30  1  0  0  0
 30 32  1  0  0  0
 32 33  1  0  0  0
 33 34  1  0  0  0
 34 35  1  0  0  0
 35 36  1  0  0  0
 36 37  1  0  0  0
 37 38  1  0  0  0
 29 22  1  0  0  0
 22 23  2  0  0  0
 23 24  1  0  0  0
 24 25  2  0  0  0
 25 21  1  0  0  0
 21  1  1  0  0  0
  1  2  2  0  0  0
  2  3  1  0  0  0
  3  4  2  0  0  0
  4  5  1  0  0  0
  4  6  1  0  0  0
  6  7  2  0  0  0
  7  8  1  0  0  0
  8 10  1  0  0  0
 10 11  2  0  0  0
 10 12  2  0  0  0
 10 13  1  0  0  0
 13 14  2  0  0  0
 14 15  1  0  0  0
 15 16  2  0  0  0
 16 17  1  0  0  0
 16 18  1  0  0  0
 18 19  1  0  0  0
 18 20  2  0  0  0
 25 26  1  0  0  0
 26 27  2  0  0  0
 38 34  1  0  0  0
 27 22  1  0  0  0
  7  1  1  0  0  0
 20 13  1  0  0  0
 30 31  1  0  0  0
  8  9  1  0  0  0
M  END
> <minimizedAffinity>
-7.74165

> <CNNscore>
0.0932333320

> <CNNaffinity>
6.6969499588

> <CNN_VS>
0.6243789792

> <CNNaffinity_variance>
0.1935727298

$$$$
[H]c1c([H])c(N([H])c2nc(N([H])[H])nc(C([H])([H])Cl)n2)c([H])c([H])c1OC([H])([H])[H]


 21 22  0  0  0  0  0  0  0  0999 V2000
   -1.0499  -53.8166  -21.0235 C   0  0  0  0  0  0  0  0  0  0  0  0
   -1.3758  -54.7898  -21.8812 N   0  0  0  0  0  0  0  0  0  0  0  0
   -1.0727  -54.8303  -23.1801 C   0  0  0  0  0  0  0  0  0  0  0  0
   -1.4553  -55.9024  -24.0309 N   0  0  0  0  0  0  0  0  0  0  0  0
   -0.3630  -53.7874  -23.6991 N   0  0  0  0  0  0  0  0  0  0  0  0
    0.0005  -52.7683  -22.8892 C   0  0  0  0  0  0  0  0  0  0  0  0
   -0.3360  -52.7913  -21.5982 N   0  0  0  0  0  0  0  0  0  0  0  0
   -1.7087  -56.8260  -23.6211 H   0  0  0  0  0  0  0  0  0  0  0  0
   -1.4834  -55.7691  -25.0618 H   0  0  0  0  0  0  0  0  0  0  0  0
   -1.3664  -53.7675  -19.6514 N   0  0  0  0  0  0  0  0  0  0  0  0
   -2.0773  -54.4826  -19.3310 H   0  0  0  0  0  0  0  0  0  0  0  0
    0.3888  -50.9862  -17.0622 C   0  0  0  0  0  0  0  0  0  0  0  0
   -0.6910  -51.7033  -16.6124 C   0  0  0  0  0  0  0  0  0  0  0  0
   -1.3124  -52.6528  -17.4352 C   0  0  0  0  0  0  0  0  0  0  0  0
   -0.8435  -52.8770  -18.7110 C   0  0  0  0  0  0  0  0  0  0  0  0
    0.2700  -52.1246  -19.1476 C   0  0  0  0  0  0  0  0  0  0  0  0
    0.8727  -51.1952  -18.3319 C   0  0  0  0  0  0  0  0  0  0  0  0
    1.2775  -50.3834  -14.9155 C   0  0  0  0  0  0  0  0  0  0  0  0
    0.9814  -50.0608  -16.2373 O   0  0  0  0  0  0  0  0  0  0  0  0
    0.7785  -51.6061  -23.4161 C   0  0  0  0  0  0  0  0  0  0  0  0
    1.0359  -50.4318  -22.1066 Cl  0  0  0  0  0  0  0  0  0  0  0  0
 18 19  1  0  0  0
 19 12  1  0  0  0
 12 13  2  0  0  0
 13 14  1  0  0  0
 14 15  2  0  0  0
 15 10  1  0  0  0
 10  1  1  0  0  0
  1  2  2  0  0  0
  2  3  1  0  0  0
  3  4  1  0  0  0
  3  5  2  0  0  0
  5  6  1  0  0  0
  6 20  1  0  0  0
 20 21  1  0  0  0
  6  7  2  0  0  0
 15 16  1  0  0  0
 16 17  2  0  0  0
 17 12  1  0  0  0
  7  1  1  0  0  0
 10 11  1  0  0  0
  4  8  1  0  0  0
  4  9  1  0  0  0
M  END
> <minimizedAffinity>
-6.22438

> <CNNscore>
0.9743622541

> <CNNaffinity>
5.7891278267

> <CNN_VS>
5.6407074928

> <CNNaffinity_variance>
0.0478834361

$$$$
[H]c1c([H])c(N([H])c2nc(N([H])[H])nc(C([H])([H])Cl)n2)c([H])c([H])c1OC([H])([H])[H]


 21 22  0  0  0  0  0  0  0  0999 V2000
    0.0864  -52.7710  -23.0998 C   0  0  0  0  0  0  0  0  0  0  0  0
   -0.3206  -53.8231  -23.8182 N   0  0  0  0  0  0  0  0  0  0  0  0
   -1.0658  -54.8385  -23.3771 C   0  0  0  0  0  0  0  0  0  0  0  0
   -1.4600  -55.9251  -24.2037 N   0  0  0  0  0  0  0  0  0  0  0  0
   -1.4585  -54.8170  -22.0710 N   0  0  0  0  0  0  0  0  0  0  0  0
   -1.0831  -53.7831  -21.2856 C   0  0  0  0  0  0  0  0  0  0  0  0
   -0.3368  -52.7994  -21.7916 N   0  0  0  0  0  0  0  0  0  0  0  0
   -1.4490  -55.8205  -25.2401 H   0  0  0  0  0  0  0  0  0  0  0  0
   -1.7599  -56.8254  -23.7782 H   0  0  0  0  0  0  0  0  0  0  0  0
    0.8729  -51.6958  -23.5589 N   0  0  0  0  0  0  0  0  0  0  0  0
    0.6150  -51.3314  -24.5181 H   0  0  0  0  0  0  0  0  0  0  0  0
    3.8634  -49.6551  -21.4583 C   0  0  0  0  0  0  0  0  0  0  0  0
    4.1145  -50.9419  -21.8629 C   0  0  0  0  0  0  0  0  0  0  0  0
    3.1510  -51.6686  -22.5759 C   0  0  0  0  0  0  0  0  0  0  0  0
    1.9353  -51.0959  -22.8792 C   0  0  0  0  0  0  0  0  0  0  0  0
    1.7043  -49.7695  -22.4505 C   0  0  0  0  0  0  0  0  0  0  0  0
    2.6569  -49.0649  -21.7514 C   0  0  0  0  0  0  0  0  0  0  0  0
    4.5566  -48.4866  -19.4795 C   0  0  0  0  0  0  0  0  0  0  0  0
    4.8234  -48.9626  -20.7605 O   0  0  0  0  0  0  0  0  0  0  0  0
   -1.4911  -53.7196  -19.8493 C   0  0  0  0  0  0  0  0  0  0  0  0
   -0.4759  -52.5299  -19.0043 Cl  0  0  0  0  0  0  0  0  0  0  0  0
 18 19  1  0  0  0
 19 12  1  0  0  0
 12 13  2  0  0  0
 13 14  1  0  0  0
 14 15  2  0  0  0
 15 10  1  0  0  0
 10  1  1  0  0  0
  1  2  2  0  0  0
  2  3  1  0  0  0
  3  4  1  0  0  0
  3  5  2  0  0  0
  5  6  1  0  0  0
  6 20  1  0  0  0
 20 21  1  0  0  0
  6  7  2  0  0  0
 15 16  1  0  0  0
 16 17  2  0  0  0
 17 12  1  0  0  0
  7  1  1  0  0  0
 10 11  1  0  0  0
  4  8  1  0  0  0
  4  9  1  0  0  0
M  END
> <minimizedAffinity>
-5.42461

> <CNNscore>
0.8137898445

> <CNNaffinity>
5.7170209885

> <CNN_VS>
4.6524534225

> <CNNaffinity_variance>
0.1543619633

$$$$
[H]c1c([H])c(N([H])c2nc(N([H])[H])nc(C([H])([H])Cl)n2)c([H])c([H])c1OC([H])([H])[H]


 21 22  0  0  0  0  0  0  0  0999 V2000
   -0.4567  -53.7536  -22.2257 C   0  0  0  0  0  0  0  0  0  0  0  0
   -1.0497  -53.8459  -21.0305 N   0  0  0  0  0  0  0  0  0  0  0  0
   -0.6559  -53.2443  -19.9063 C   0  0  0  0  0  0  0  0  0  0  0  0
   -1.3404  -53.3910  -18.6696 N   0  0  0  0  0  0  0  0  0  0  0  0
    0.4558  -52.4561  -19.9641 N   0  0  0  0  0  0  0  0  0  0  0  0
    1.1061  -52.3171  -21.1407 C   0  0  0  0  0  0  0  0  0  0  0  0
    0.6577  -52.9478  -22.2278 N   0  0  0  0  0  0  0  0  0  0  0  0
   -2.3311  -53.7128  -18.6588 H   0  0  0  0  0  0  0  0  0  0  0  0
   -0.8563  -53.1783  -17.7741 H   0  0  0  0  0  0  0  0  0  0  0  0
   -0.8669  -54.3857  -23.4163 N   0  0  0  0  0  0  0  0  0  0  0  0
   -1.4731  -55.2423  -23.2814 H   0  0  0  0  0  0  0  0  0  0  0  0
    0.0472  -52.9117  -27.2258 C   0  0  0  0  0  0  0  0  0  0  0  0
    0.2789  -54.2393  -26.9686 C   0  0  0  0  0  0  0  0  0  0  0  0
   -0.0159  -54.7869  -25.7123 C   0  0  0  0  0  0  0  0  0  0  0  0
   -0.5437  -53.9937  -24.7173 C   0  0  0  0  0  0  0  0  0  0  0  0
   -0.7723  -52.6304  -25.0103 C   0  0  0  0  0  0  0  0  0  0  0  0
   -0.4796  -52.1031  -26.2467 C   0  0  0  0  0  0  0  0  0  0  0  0
   -0.4166  -52.7533  -29.5755 C   0  0  0  0  0  0  0  0  0  0  0  0
    0.3443  -52.3976  -28.4649 O   0  0  0  0  0  0  0  0  0  0  0  0
    2.3281  -51.4634  -21.2489 C   0  0  0  0  0  0  0  0  0  0  0  0
    2.7359  -51.2396  -22.9647 Cl  0  0  0  0  0  0  0  0  0  0  0  0
 18 19  1  0  0  0
 19 12  1  0  0  0
 12 13  2  0  0  0
 13 14  1  0  0  0
 14 15  2  0  0  0
 15 10  1  0  0  0
 10  1  1  0  0  0
  1  2  2  0  0  0
  2  3  1  0  0  0
  3  4  1  0  0  0
  3  5  2  0  0  0
  5  6  1  0  0  0
  6 20  1  0  0  0
 20 21  1  0  0  0
  6  7  2  0  0  0
 15 16  1  0  0  0
 16 17  2  0  0  0
 17 12  1  0  0  0
  7  1  1  0  0  0
 10 11  1  0  0  0
  4  8  1  0  0  0
  4  9  1  0  0  0
M  END
> <minimizedAffinity>
-6.36042

> <CNNscore>
0.8116498590

> <CNNaffinity>
5.7912263870

> <CNN_VS>
4.7004480362

> <CNNaffinity_variance>
0.1019023210

$$$$
[H]c1c([H])c(N([H])c2nc(N([H])[H])nc(C([H])([H])Cl)n2)c([H])c([H])c1OC([H])([H])[H]


 21 22  0  0  0  0  0  0  0  0999 V2000
    0.2480  -52.7496  -24.4136 C   0  0  0  0  0  0  0  0  0  0  0  0
   -0.2877  -53.9461  -24.1490 N   0  0  0  0  0  0  0  0  0  0  0  0
   -0.5396  -54.9109  -25.0359 C   0  0  0  0  0  0  0  0  0  0  0  0
   -1.1126  -56.1610  -24.6775 N   0  0  0  0  0  0  0  0  0  0  0  0
   -0.2270  -54.6701  -26.3416 N   0  0  0  0  0  0  0  0  0  0  0  0
    0.3179  -53.4809  -26.6815 C   0  0  0  0  0  0  0  0  0  0  0  0
    0.5437  -52.5595  -25.7431 N   0  0  0  0  0  0  0  0  0  0  0  0
   -1.0702  -56.4880  -23.6893 H   0  0  0  0  0  0  0  0  0  0  0  0
   -1.5746  -56.7516  -25.3980 H   0  0  0  0  0  0  0  0  0  0  0  0
    0.5167  -51.7267  -23.4825 N   0  0  0  0  0  0  0  0  0  0  0  0
    0.8537  -50.8165  -23.9036 H   0  0  0  0  0  0  0  0  0  0  0  0
    0.1732  -51.6743  -19.3112 C   0  0  0  0  0  0  0  0  0  0  0  0
   -0.1035  -52.8442  -19.9726 C   0  0  0  0  0  0  0  0  0  0  0  0
    0.0028  -52.9195  -21.3682 C   0  0  0  0  0  0  0  0  0  0  0  0
    0.3877  -51.8139  -22.0945 C   0  0  0  0  0  0  0  0  0  0  0  0
    0.6666  -50.6229  -21.3873 C   0  0  0  0  0  0  0  0  0  0  0  0
    0.5595  -50.5598  -20.0173 C   0  0  0  0  0  0  0  0  0  0  0  0
    0.1615  -50.4087  -17.2717 C   0  0  0  0  0  0  0  0  0  0  0  0
    0.0620  -51.6248  -17.9426 O   0  0  0  0  0  0  0  0  0  0  0  0
    0.6757  -53.1753  -28.1000 C   0  0  0  0  0  0  0  0  0  0  0  0
   -0.7957  -52.7277  -28.9915 Cl  0  0  0  0  0  0  0  0  0  0  0  0
 18 19  1  0  0  0
 19 12  1  0  0  0
 12 13  2  0  0  0
 13 14  1  0  0  0
 14 15  2  0  0  0
 15 10  1  0  0  0
 10  1  1  0  0  0
  1  2  2  0  0  0
  2  3  1  0  0  0
  3  4  1  0  0  0
  3  5  2  0  0  0
  5  6  1  0  0  0
  6 20  1  0  0  0
 20 21  1  0  0  0
  6  7  2  0  0  0
 15 16  1  0  0  0
 16 17  2  0  0  0
 17 12  1  0  0  0
  7  1  1  0  0  0
 10 11  1  0  0  0
  4  8  1  0  0  0
  4  9  1  0  0  0
M  END
> <minimizedAffinity>
-6.32263

> <CNNscore>
0.7519779801

> <CNNaffinity>
5.7405929565

> <CNN_VS>
4.3167996407

> <CNNaffinity_variance>
0.0909120888

$$$$
[H]c1c([H])c(N([H])c2nc(N([H])[H])nc(C([H])([H])Cl)n2)c([H])c([H])c1OC([H])([H])[H]


 21 22  0  0  0  0  0  0  0  0999 V2000
   -0.6570  -53.0939  -22.5181 C   0  0  0  0  0  0  0  0  0  0  0  0
   -0.8746  -54.3701  -22.8537 N   0  0  0  0  0  0  0  0  0  0  0  0
   -0.9594  -54.8560  -24.0937 C   0  0  0  0  0  0  0  0  0  0  0  0
   -1.1933  -56.2298  -24.3721 N   0  0  0  0  0  0  0  0  0  0  0  0
   -0.8125  -53.9809  -25.1297 N   0  0  0  0  0  0  0  0  0  0  0  0
   -0.5900  -52.6746  -24.8640 C   0  0  0  0  0  0  0  0  0  0  0  0
   -0.5165  -52.2556  -23.5992 N   0  0  0  0  0  0  0  0  0  0  0  0
   -1.0000  -56.9481  -23.6428 H   0  0  0  0  0  0  0  0  0  0  0  0
   -1.5569  -56.5217  -25.3016 H   0  0  0  0  0  0  0  0  0  0  0  0
   -0.5663  -52.5742  -21.2116 N   0  0  0  0  0  0  0  0  0  0  0  0
   -1.3219  -52.9013  -20.5472 H   0  0  0  0  0  0  0  0  0  0  0  0
    2.5276  -50.1596  -19.7562 C   0  0  0  0  0  0  0  0  0  0  0  0
    1.4053  -49.5488  -20.2561 C   0  0  0  0  0  0  0  0  0  0  0  0
    0.3362  -50.3096  -20.7493 C   0  0  0  0  0  0  0  0  0  0  0  0
    0.4016  -51.6856  -20.7379 C   0  0  0  0  0  0  0  0  0  0  0  0
    1.5690  -52.2875  -20.2171 C   0  0  0  0  0  0  0  0  0  0  0  0
    2.6124  -51.5316  -19.7351 C   0  0  0  0  0  0  0  0  0  0  0  0
    4.8605  -49.5949  -19.7405 C   0  0  0  0  0  0  0  0  0  0  0  0
    3.5627  -49.3928  -19.2781 O   0  0  0  0  0  0  0  0  0  0  0  0
   -0.4232  -51.6818  -25.9686 C   0  0  0  0  0  0  0  0  0  0  0  0
    0.1831  -52.5144  -27.4175 Cl  0  0  0  0  0  0  0  0  0  0  0  0
 18 19  1  0  0  0
 19 12  1  0  0  0
 12 13  2  0  0  0
 13 14  1  0  0  0
 14 15  2  0  0  0
 15 10  1  0  0  0
 10  1  1  0  0  0
  1  2  2  0  0  0
  2  3  1  0  0  0
  3  4  1  0  0  0
  3  5  2  0  0  0
  5  6  1  0  0  0
  6 20  1  0  0  0
 20 21  1  0  0  0
  6  7  2  0  0  0
 15 16  1  0  0  0
 16 17  2  0  0  0
 17 12  1  0  0  0
  7  1  1  0  0  0
 10 11  1  0  0  0
  4  8  1  0  0  0
  4  9  1  0  0  0
M  END
> <minimizedAffinity>
-5.72588

> <CNNscore>
0.6436251402

> <CNNaffinity>
5.5319323540

> <CNN_VS>
3.5604908466

> <CNNaffinity_variance>
0.1532223374

$$$$
[H]c1c([H])c(N([H])c2nc(N([H])[H])nc(C([H])([H])Cl)n2)c([H])c([H])c1OC([H])([H])[H]


 21 22  0  0  0  0  0  0  0  0999 V2000
   -0.3089  -52.7122  -19.8103 C   0  0  0  0  0  0  0  0  0  0  0  0
    0.1528  -51.4720  -20.0039 N   0  0  0  0  0  0  0  0  0  0  0  0
    0.4202  -50.9051  -21.1820 C   0  0  0  0  0  0  0  0  0  0  0  0
    0.9103  -49.5772  -21.3083 N   0  0  0  0  0  0  0  0  0  0  0  0
    0.2078  -51.6476  -22.3064 N   0  0  0  0  0  0  0  0  0  0  0  0
   -0.2584  -52.9104  -22.1854 C   0  0  0  0  0  0  0  0  0  0  0  0
   -0.5050  -53.4159  -20.9754 N   0  0  0  0  0  0  0  0  0  0  0  0
    0.7863  -48.9008  -20.5257 H   0  0  0  0  0  0  0  0  0  0  0  0
    1.3928  -49.2771  -22.1793 H   0  0  0  0  0  0  0  0  0  0  0  0
   -0.5934  -53.3168  -18.5697 N   0  0  0  0  0  0  0  0  0  0  0  0
   -0.1300  -54.2550  -18.4133 H   0  0  0  0  0  0  0  0  0  0  0  0
   -2.8251  -51.5712  -15.4888 C   0  0  0  0  0  0  0  0  0  0  0  0
   -3.4467  -52.4780  -16.3097 C   0  0  0  0  0  0  0  0  0  0  0  0
   -2.7444  -53.0981  -17.3523 C   0  0  0  0  0  0  0  0  0  0  0  0
   -1.4160  -52.8018  -17.5654 C   0  0  0  0  0  0  0  0  0  0  0  0
   -0.8016  -51.8647  -16.7046 C   0  0  0  0  0  0  0  0  0  0  0  0
   -1.4999  -51.2620  -15.6840 C   0  0  0  0  0  0  0  0  0  0  0  0
   -2.9114  -50.6671  -13.2669 C   0  0  0  0  0  0  0  0  0  0  0  0
   -3.5342  -50.9762  -14.4733 O   0  0  0  0  0  0  0  0  0  0  0  0
   -0.5051  -53.7588  -23.3908 C   0  0  0  0  0  0  0  0  0  0  0  0
   -1.3608  -55.2378  -22.9005 Cl  0  0  0  0  0  0  0  0  0  0  0  0
 18 19  1  0  0  0
 19 12  1  0  0  0
 12 13  2  0  0  0
 13 14  1  0  0  0
 14 15  2  0  0  0
 15 10  1  0  0  0
 10  1  1  0  0  0
  1  2  2  0  0  0
  2  3  1  0  0  0
  3  4  1  0  0  0
  3  5  2  0  0  0
  5  6  1  0  0  0
  6 20  1  0  0  0
 20 21  1  0  0  0
  6  7  2  0  0  0
 15 16  1  0  0  0
 16 17  2  0  0  0
 17 12  1  0  0  0
  7  1  1  0  0  0
 10 11  1  0  0  0
  4  8  1  0  0  0
  4  9  1  0  0  0
M  END
> <minimizedAffinity>
-5.35631

> <CNNscore>
0.5642331839

> <CNNaffinity>
4.9457912445

> <CNN_VS>
2.7905795574

> <CNNaffinity_variance>
0.1548037827

$$$$
[H]c1c([H])c(N([H])c2nc(N([H])[H])nc(C([H])([H])Cl)n2)c([H])c([H])c1OC([H])([H])[H]


 21 22  0  0  0  0  0  0  0  0999 V2000
    0.0777  -53.8411  -25.8068 C   0  0  0  0  0  0  0  0  0  0  0  0
    1.3874  -53.6279  -25.9737 N   0  0  0  0  0  0  0  0  0  0  0  0
    1.9725  -53.1291  -27.0644 C   0  0  0  0  0  0  0  0  0  0  0  0
    3.3759  -52.9306  -27.1676 N   0  0  0  0  0  0  0  0  0  0  0  0
    1.1728  -52.7999  -28.1193 N   0  0  0  0  0  0  0  0  0  0  0  0
   -0.1618  -52.9889  -28.0203 C   0  0  0  0  0  0  0  0  0  0  0  0
   -0.6815  -53.4924  -26.8991 N   0  0  0  0  0  0  0  0  0  0  0  0
    3.9574  -52.8729  -26.3052 H   0  0  0  0  0  0  0  0  0  0  0  0
    3.8256  -52.8426  -28.1011 H   0  0  0  0  0  0  0  0  0  0  0  0
   -0.5466  -54.3671  -24.6583 N   0  0  0  0  0  0  0  0  0  0  0  0
   -1.0754  -55.2706  -24.8114 H   0  0  0  0  0  0  0  0  0  0  0  0
   -0.5243  -52.9895  -20.7058 C   0  0  0  0  0  0  0  0  0  0  0  0
   -0.2939  -52.0853  -21.7117 C   0  0  0  0  0  0  0  0  0  0  0  0
   -0.2975  -52.4912  -23.0534 C   0  0  0  0  0  0  0  0  0  0  0  0
   -0.5331  -53.8091  -23.3779 C   0  0  0  0  0  0  0  0  0  0  0  0
   -0.7675  -54.7181  -22.3219 C   0  0  0  0  0  0  0  0  0  0  0  0
   -0.7621  -54.3093  -21.0084 C   0  0  0  0  0  0  0  0  0  0  0  0
    0.2903  -51.5021  -19.0071 C   0  0  0  0  0  0  0  0  0  0  0  0
   -0.5158  -52.5679  -19.3981 O   0  0  0  0  0  0  0  0  0  0  0  0
   -1.0745  -52.6420  -29.1517 C   0  0  0  0  0  0  0  0  0  0  0  0
   -2.7473  -52.5720  -28.5541 Cl  0  0  0  0  0  0  0  0  0  0  0  0
 18 19  1  0  0  0
 19 12  1  0  0  0
 12 13  2  0  0  0
 13 14  1  0  0  0
 14 15  2  0  0  0
 15 10  1  0  0  0
 10  1  1  0  0  0
  1  2  2  0  0  0
  2  3  1  0  0  0
  3  4  1  0  0  0
  3  5  2  0  0  0
  5  6  1  0  0  0
  6 20  1  0  0  0
 20 21  1  0  0  0
  6  7  2  0  0  0
 15 16  1  0  0  0
 16 17  2  0  0  0
 17 12  1  0  0  0
  7  1  1  0  0  0
 10 11  1  0  0  0
  4  8  1  0  0  0
  4  9  1  0  0  0
M  END
> <minimizedAffinity>
-7.45723

> <CNNscore>
0.5639030933

> <CNNaffinity>
5.8203344345

> <CNN_VS>
3.2821044922

> <CNNaffinity_variance>
0.1317271292

$$$$
[H]c1c([H])c(N([H])c2nc(N([H])[H])nc(C([H])([H])Cl)n2)c([H])c([H])c1OC([H])([H])[H]


 21 22  0  0  0  0  0  0  0  0999 V2000
    0.0070  -53.8724  -25.7896 C   0  0  0  0  0  0  0  0  0  0  0  0
    1.3262  -53.6810  -25.8989 N   0  0  0  0  0  0  0  0  0  0  0  0
    1.9638  -53.1669  -26.9525 C   0  0  0  0  0  0  0  0  0  0  0  0
    3.3737  -52.9937  -26.9948 N   0  0  0  0  0  0  0  0  0  0  0  0
    1.2134  -52.7958  -28.0294 N   0  0  0  0  0  0  0  0  0  0  0  0
   -0.1273  -52.9608  -27.9883 C   0  0  0  0  0  0  0  0  0  0  0  0
   -0.7010  -53.4817  -26.9020 N   0  0  0  0  0  0  0  0  0  0  0  0
    3.9211  -52.9690  -26.1088 H   0  0  0  0  0  0  0  0  0  0  0  0
    3.8621  -52.8914  -27.9072 H   0  0  0  0  0  0  0  0  0  0  0  0
   -0.6726  -54.4143  -24.6807 N   0  0  0  0  0  0  0  0  0  0  0  0
   -1.3150  -55.2251  -24.9030 H   0  0  0  0  0  0  0  0  0  0  0  0
   -0.3860  -52.8140  -20.8236 C   0  0  0  0  0  0  0  0  0  0  0  0
   -0.6101  -54.1613  -20.9544 C   0  0  0  0  0  0  0  0  0  0  0  0
   -0.7073  -54.7506  -22.2225 C   0  0  0  0  0  0  0  0  0  0  0  0
   -0.5785  -53.9794  -23.3568 C   0  0  0  0  0  0  0  0  0  0  0  0
   -0.3478  -52.5952  -23.1921 C   0  0  0  0  0  0  0  0  0  0  0  0
   -0.2539  -52.0268  -21.9429 C   0  0  0  0  0  0  0  0  0  0  0  0
    0.3919  -51.0627  -19.3781 C   0  0  0  0  0  0  0  0  0  0  0  0
   -0.2945  -52.2589  -19.5700 O   0  0  0  0  0  0  0  0  0  0  0  0
   -0.9872  -52.5679  -29.1458 C   0  0  0  0  0  0  0  0  0  0  0  0
   -2.6931  -52.6047  -28.6469 Cl  0  0  0  0  0  0  0  0  0  0  0  0
 18 19  1  0  0  0
 19 12  1  0  0  0
 12 13  2  0  0  0
 13 14  1  0  0  0
 14 15  2  0  0  0
 15 10  1  0  0  0
 10  1  1  0  0  0
  1  2  2  0  0  0
  2  3  1  0  0  0
  3  4  1  0  0  0
  3  5  2  0  0  0
  5  6  1  0  0  0
  6 20  1  0  0  0
 20 21  1  0  0  0
  6  7  2  0  0  0
 15 16  1  0  0  0
 16 17  2  0  0  0
 17 12  1  0  0  0
  7  1  1  0  0  0
 10 11  1  0  0  0
  4  8  1  0  0  0
  4  9  1  0  0  0
M  END
> <minimizedAffinity>
-7.41489

> <CNNscore>
0.5520133972

> <CNNaffinity>
5.8101639748

> <CNN_VS>
3.2072882652

> <CNNaffinity_variance>
0.1397431791

$$$$
[H]c1c([H])c(N([H])c2nc(N([H])[H])nc(C([H])([H])Cl)n2)c([H])c([H])c1OC([H])([H])[H]


 21 22  0  0  0  0  0  0  0  0999 V2000
    0.4060  -52.5944  -24.6035 C   0  0  0  0  0  0  0  0  0  0  0  0
   -0.2154  -53.6820  -24.1346 N   0  0  0  0  0  0  0  0  0  0  0  0
   -0.5904  -54.7452  -24.8486 C   0  0  0  0  0  0  0  0  0  0  0  0
   -1.2489  -55.8676  -24.2774 N   0  0  0  0  0  0  0  0  0  0  0  0
   -0.3218  -54.7385  -26.1859 N   0  0  0  0  0  0  0  0  0  0  0  0
    0.3045  -53.6707  -26.7282 C   0  0  0  0  0  0  0  0  0  0  0  0
    0.6522  -52.6397  -25.9557 N   0  0  0  0  0  0  0  0  0  0  0  0
   -1.1866  -56.0404  -23.2521 H   0  0  0  0  0  0  0  0  0  0  0  0
   -1.7934  -56.5180  -24.8791 H   0  0  0  0  0  0  0  0  0  0  0  0
    0.8047  -51.4687  -23.8556 N   0  0  0  0  0  0  0  0  0  0  0  0
    0.5770  -50.5350  -24.2980 H   0  0  0  0  0  0  0  0  0  0  0  0
    2.4909  -51.5518  -20.0254 C   0  0  0  0  0  0  0  0  0  0  0  0
    3.3340  -51.5410  -21.1078 C   0  0  0  0  0  0  0  0  0  0  0  0
    2.8229  -51.5058  -22.4126 C   0  0  0  0  0  0  0  0  0  0  0  0
    1.4617  -51.4821  -22.6232 C   0  0  0  0  0  0  0  0  0  0  0  0
    0.6174  -51.4936  -21.4903 C   0  0  0  0  0  0  0  0  0  0  0  0
    1.1293  -51.5279  -20.2139 C   0  0  0  0  0  0  0  0  0  0  0  0
    3.7097  -50.4902  -18.2509 C   0  0  0  0  0  0  0  0  0  0  0  0
    3.0153  -51.5864  -18.7559 O   0  0  0  0  0  0  0  0  0  0  0  0
    0.6180  -53.6218  -28.1886 C   0  0  0  0  0  0  0  0  0  0  0  0
   -0.5808  -52.5985  -29.0108 Cl  0  0  0  0  0  0  0  0  0  0  0  0
 18 19  1  0  0  0
 19 12  1  0  0  0
 12 13  2  0  0  0
 13 14  1  0  0  0
 14 15  2  0  0  0
 15 10  1  0  0  0
 10  1  1  0  0  0
  1  2  2  0  0  0
  2  3  1  0  0  0
  3  4  1  0  0  0
  3  5  2  0  0  0
  5  6  1  0  0  0
  6 20  1  0  0  0
 20 21  1  0  0  0
  6  7  2  0  0  0
 15 16  1  0  0  0
 16 17  2  0  0  0
 17 12  1  0  0  0
  7  1  1  0  0  0
 10 11  1  0  0  0
  4  8  1  0  0  0
  4  9  1  0  0  0
M  END
> <minimizedAffinity>
-6.20028

> <CNNscore>
0.5225926042

> <CNNaffinity>
5.6645259857

> <CNN_VS>
2.9602394104

> <CNNaffinity_variance>
0.1595714390

$$$$
[H]c1nc2sc3c(=O)n(C4([H])C([H])([H])C([H])([H])C([H])([H])C([H])([H])C4([H])[H])c([H])nc3c2c(N(C([H])([H])[H])C([H])([H])[H])c1[H]


 23 26  0  0  0  0  0  0  0  0999 V2000
    0.3116  -53.3682  -23.5700 C   0  0  0  0  0  0  0  0  0  0  0  0
   -0.3688  -54.3390  -24.2771 C   0  0  0  0  0  0  0  0  0  0  0  0
   -1.3318  -55.1669  -23.7481 C   0  0  0  0  0  0  0  0  0  0  0  0
   -1.5925  -54.9766  -22.4438 N   0  0  0  0  0  0  0  0  0  0  0  0
   -0.9459  -54.0273  -21.6939 C   0  0  0  0  0  0  0  0  0  0  0  0
   -1.0465  -53.5651  -20.0543 S   0  0  0  0  0  0  0  0  0  0  0  0
    0.1279  -52.3310  -20.0427 C   0  0  0  0  0  0  0  0  0  0  0  0
    0.6482  -51.4584  -19.0670 C   0  0  0  0  0  0  0  0  0  0  0  0
    0.1515  -51.5843  -17.9313 O   0  0  0  0  0  0  0  0  0  0  0  0
    1.6059  -50.5677  -19.3628 N   0  0  0  0  0  0  0  0  0  0  0  0
    2.0316  -50.5619  -20.6351 C   0  0  0  0  0  0  0  0  0  0  0  0
    1.5525  -51.3768  -21.5676 N   0  0  0  0  0  0  0  0  0  0  0  0
    0.5739  -52.3099  -21.3343 C   0  0  0  0  0  0  0  0  0  0  0  0
    0.0152  -53.1934  -22.1986 C   0  0  0  0  0  0  0  0  0  0  0  0
    2.1117  -49.6926  -18.3364 C   0  0  0  0  0  0  0  0  0  0  0  0
    3.1347  -50.3674  -17.4568 C   0  0  0  0  0  0  0  0  0  0  0  0
    3.4945  -49.4145  -16.3541 C   0  0  0  0  0  0  0  0  0  0  0  0
    2.8940  -48.0617  -16.4863 C   0  0  0  0  0  0  0  0  0  0  0  0
    2.9680  -47.4671  -17.8567 C   0  0  0  0  0  0  0  0  0  0  0  0
    2.8406  -48.4936  -18.9584 C   0  0  0  0  0  0  0  0  0  0  0  0
    2.6694  -52.8437  -24.3700 C   0  0  0  0  0  0  0  0  0  0  0  0
    1.2497  -52.5780  -24.2777 N   0  0  0  0  0  0  0  0  0  0  0  0
    0.7421  -51.4062  -24.9660 C   0  0  0  0  0  0  0  0  0  0  0  0
 21 22  1  0  0  0
 22 23  1  0  0  0
 22  1  1  0  0  0
  1  2  2  0  0  0
  2  3  1  0  0  0
  3  4  2  0  0  0
  4  5  1  0  0  0
  5  6  1  0  0  0
  6  7  1  0  0  0
  7  8  1  0  0  0
  8  9  2  0  0  0
  8 10  1  0  0  0
 10 15  1  0  0  0
 15 16  1  0  0  0
 16 17  1  0  0  0
 17 18  1  0  0  0
 18 19  1  0  0  0
 19 20  1  0  0  0
 10 11  1  0  0  0
 11 12  2  0  0  0
 12 13  1  0  0  0
 13 14  1  0  0  0
 14  1  1  0  0  0
 14  5  2  0  0  0
 13  7  2  0  0  0
 20 15  1  0  0  0
M  END
> <minimizedAffinity>
-6.26191

> <CNNscore>
0.8419435024

> <CNNaffinity>
6.5737023354

> <CNN_VS>
5.5346860886

> <CNNaffinity_variance>
0.1188965216

$$$$
[H]c1nc2sc3c(=O)n(C4([H])C([H])([H])C([H])([H])C([H])([H])C([H])([H])C4([H])[H])c([H])nc3c2c(N(C([H])([H])[H])C([H])([H])[H])c1[H]


 23 26  0  0  0  0  0  0  0  0999 V2000
    0.7217  -50.9663  -19.8008 C   0  0  0  0  0  0  0  0  0  0  0  0
    0.5031  -50.9875  -18.4381 C   0  0  0  0  0  0  0  0  0  0  0  0
   -0.2489  -51.9311  -17.7773 C   0  0  0  0  0  0  0  0  0  0  0  0
   -0.7887  -52.8799  -18.5607 N   0  0  0  0  0  0  0  0  0  0  0  0
   -0.6044  -52.9061  -19.9197 C   0  0  0  0  0  0  0  0  0  0  0  0
   -1.1550  -53.9480  -21.1539 S   0  0  0  0  0  0  0  0  0  0  0  0
   -0.4358  -53.1879  -22.4984 C   0  0  0  0  0  0  0  0  0  0  0  0
   -0.4144  -53.4273  -23.8862 C   0  0  0  0  0  0  0  0  0  0  0  0
   -1.0575  -54.4281  -24.2565 O   0  0  0  0  0  0  0  0  0  0  0  0
    0.2551  -52.6240  -24.7256 N   0  0  0  0  0  0  0  0  0  0  0  0
    0.8964  -51.5884  -24.1632 C   0  0  0  0  0  0  0  0  0  0  0  0
    0.8872  -51.3478  -22.8574 N   0  0  0  0  0  0  0  0  0  0  0  0
    0.2244  -52.1277  -21.9436 C   0  0  0  0  0  0  0  0  0  0  0  0
    0.1389  -51.9782  -20.5982 C   0  0  0  0  0  0  0  0  0  0  0  0
    0.2525  -52.9030  -26.1389 C   0  0  0  0  0  0  0  0  0  0  0  0
   -0.8204  -52.1394  -26.8748 C   0  0  0  0  0  0  0  0  0  0  0  0
   -0.8158  -52.5999  -28.3036 C   0  0  0  0  0  0  0  0  0  0  0  0
    0.2867  -53.5350  -28.6476 C   0  0  0  0  0  0  0  0  0  0  0  0
    1.6333  -53.1455  -28.1264 C   0  0  0  0  0  0  0  0  0  0  0  0
    1.5754  -52.4620  -26.7800 C   0  0  0  0  0  0  0  0  0  0  0  0
    1.0894  -48.6778  -20.8505 C   0  0  0  0  0  0  0  0  0  0  0  0
    1.5514  -49.9409  -20.3160 N   0  0  0  0  0  0  0  0  0  0  0  0
    2.9822  -50.1797  -20.3052 C   0  0  0  0  0  0  0  0  0  0  0  0
 21 22  1  0  0  0
 22 23  1  0  0  0
 22  1  1  0  0  0
  1  2  2  0  0  0
  2  3  1  0  0  0
  3  4  2  0  0  0
  4  5  1  0  0  0
  5  6  1  0  0  0
  6  7  1  0  0  0
  7  8  1  0  0  0
  8  9  2  0  0  0
  8 10  1  0  0  0
 10 15  1  0  0  0
 15 16  1  0  0  0
 16 17  1  0  0  0
 17 18  1  0  0  0
 18 19  1  0  0  0
 19 20  1  0  0  0
 10 11  1  0  0  0
 11 12  2  0  0  0
 12 13  1  0  0  0
 13 14  1  0  0  0
 14  1  1  0  0  0
 14  5  2  0  0  0
 13  7  2  0  0  0
 20 15  1  0  0  0
M  END
> <minimizedAffinity>
-8.20263

> <CNNscore>
0.8340709209

> <CNNaffinity>
6.7847795486

> <CNN_VS>
5.6589875221

> <CNNaffinity_variance>
0.0833747238

$$$$
[H]c1nc2sc3c(=O)n(C4([H])C([H])([H])C([H])([H])C([H])([H])C([H])([H])C4([H])[H])c([H])nc3c2c(N(C([H])([H])[H])C([H])([H])[H])c1[H]


 23 26  0  0  0  0  0  0  0  0999 V2000
    0.1860  -53.3648  -23.7836 C   0  0  0  0  0  0  0  0  0  0  0  0
   -0.6540  -54.3797  -24.1958 C   0  0  0  0  0  0  0  0  0  0  0  0
   -1.4009  -55.1720  -23.3550 C   0  0  0  0  0  0  0  0  0  0  0  0
   -1.2677  -54.8977  -22.0464 N   0  0  0  0  0  0  0  0  0  0  0  0
   -0.4470  -53.9016  -21.5820 C   0  0  0  0  0  0  0  0  0  0  0  0
   -0.0670  -53.3343  -20.0181 S   0  0  0  0  0  0  0  0  0  0  0  0
    1.0339  -52.1015  -20.4314 C   0  0  0  0  0  0  0  0  0  0  0  0
    1.8023  -51.1674  -19.7097 C   0  0  0  0  0  0  0  0  0  0  0  0
    1.6664  -51.2197  -18.4723 O   0  0  0  0  0  0  0  0  0  0  0  0
    2.6120  -50.2973  -20.3305 N   0  0  0  0  0  0  0  0  0  0  0  0
    2.6421  -50.3737  -21.6696 C   0  0  0  0  0  0  0  0  0  0  0  0
    1.9246  -51.2475  -22.3660 N   0  0  0  0  0  0  0  0  0  0  0  0
    1.0773  -52.1639  -21.7959 C   0  0  0  0  0  0  0  0  0  0  0  0
    0.3053  -53.1017  -22.3994 C   0  0  0  0  0  0  0  0  0  0  0  0
    3.3816  -49.3574  -19.5563 C   0  0  0  0  0  0  0  0  0  0  0  0
    4.8083  -49.2489  -20.0344 C   0  0  0  0  0  0  0  0  0  0  0  0
    5.5450  -48.3488  -19.0855 C   0  0  0  0  0  0  0  0  0  0  0  0
    4.6899  -47.7068  -18.0535 C   0  0  0  0  0  0  0  0  0  0  0  0
    3.4034  -47.1380  -18.5614 C   0  0  0  0  0  0  0  0  0  0  0  0
    2.8013  -47.9428  -19.6898 C   0  0  0  0  0  0  0  0  0  0  0  0
    0.3300  -51.4530  -25.4565 C   0  0  0  0  0  0  0  0  0  0  0  0
    0.8571  -52.6217  -24.7849 N   0  0  0  0  0  0  0  0  0  0  0  0
    2.1823  -53.0719  -25.1664 C   0  0  0  0  0  0  0  0  0  0  0  0
 21 22  1  0  0  0
 22 23  1  0  0  0
 22  1  1  0  0  0
  1  2  2  0  0  0
  2  3  1  0  0  0
  3  4  2  0  0  0
  4  5  1  0  0  0
  5  6  1  0  0  0
  6  7  1  0  0  0
  7  8  1  0  0  0
  8  9  2  0  0  0
  8 10  1  0  0  0
 10 15  1  0  0  0
 15 16  1  0  0  0
 16 17  1  0  0  0
 17 18  1  0  0  0
 18 19  1  0  0  0
 19 20  1  0  0  0
 10 11  1  0  0  0
 11 12  2  0  0  0
 12 13  1  0  0  0
 13 14  1  0  0  0
 14  1  1  0  0  0
 14  5  2  0  0  0
 13  7  2  0  0  0
 20 15  1  0  0  0
M  END
> <minimizedAffinity>
-6.41771

> <CNNscore>
0.7708892822

> <CNNaffinity>
6.4932632446

> <CNN_VS>
5.0055871010

> <CNNaffinity_variance>
0.1632023454

$$$$
[H]c1nc2sc3c(=O)n(C4([H])C([H])([H])C([H])([H])C([H])([H])C([H])([H])C4([H])[H])c([H])nc3c2c(N(C([H])([H])[H])C([H])([H])[H])c1[H]


 23 26  0  0  0  0  0  0  0  0999 V2000
   -0.2188  -53.4749  -24.0194 C   0  0  0  0  0  0  0  0  0  0  0  0
   -0.9811  -54.6248  -23.9748 C   0  0  0  0  0  0  0  0  0  0  0  0
   -1.4259  -55.2287  -22.8215 C   0  0  0  0  0  0  0  0  0  0  0  0
   -1.0649  -54.6154  -21.6818 N   0  0  0  0  0  0  0  0  0  0  0  0
   -0.3080  -53.4716  -21.6683 C   0  0  0  0  0  0  0  0  0  0  0  0
    0.3052  -52.4906  -20.4138 S   0  0  0  0  0  0  0  0  0  0  0  0
    1.1216  -51.3241  -21.3493 C   0  0  0  0  0  0  0  0  0  0  0  0
    1.8891  -50.1774  -21.0662 C   0  0  0  0  0  0  0  0  0  0  0  0
    2.0185  -49.9181  -19.8545 O   0  0  0  0  0  0  0  0  0  0  0  0
    2.4294  -49.4367  -22.0447 N   0  0  0  0  0  0  0  0  0  0  0  0
    2.1938  -49.8546  -23.2977 C   0  0  0  0  0  0  0  0  0  0  0  0
    1.4728  -50.9326  -23.5829 N   0  0  0  0  0  0  0  0  0  0  0  0
    0.8919  -51.7340  -22.6326 C   0  0  0  0  0  0  0  0  0  0  0  0
    0.1457  -52.8539  -22.8025 C   0  0  0  0  0  0  0  0  0  0  0  0
    3.2080  -48.2708  -21.7137 C   0  0  0  0  0  0  0  0  0  0  0  0
    4.6865  -48.5639  -21.6523 C   0  0  0  0  0  0  0  0  0  0  0  0
    5.3831  -47.3218  -21.1775 C   0  0  0  0  0  0  0  0  0  0  0  0
    4.5011  -46.1340  -21.0381 C   0  0  0  0  0  0  0  0  0  0  0  0
    3.5576  -45.9087  -22.1765 C   0  0  0  0  0  0  0  0  0  0  0  0
    3.0537  -47.1922  -22.7947 C   0  0  0  0  0  0  0  0  0  0  0  0
    1.3441  -53.2671  -26.0165 C   0  0  0  0  0  0  0  0  0  0  0  0
    0.1261  -52.9659  -25.2950 N   0  0  0  0  0  0  0  0  0  0  0  0
   -0.8222  -52.0690  -25.9279 C   0  0  0  0  0  0  0  0  0  0  0  0
 21 22  1  0  0  0
 22 23  1  0  0  0
 22  1  1  0  0  0
  1  2  2  0  0  0
  2  3  1  0  0  0
  3  4  2  0  0  0
  4  5  1  0  0  0
  5  6  1  0  0  0
  6  7  1  0  0  0
  7  8  1  0  0  0
  8  9  2  0  0  0
  8 10  1  0  0  0
 10 15  1  0  0  0
 15 16  1  0  0  0
 16 17  1  0  0  0
 17 18  1  0  0  0
 18 19  1  0  0  0
 19 20  1  0  0  0
 10 11  1  0  0  0
 11 12  2  0  0  0
 12 13  1  0  0  0
 13 14  1  0  0  0
 14  1  1  0  0  0
 14  5  2  0  0  0
 13  7  2  0  0  0
 20 15  1  0  0  0
M  END
> <minimizedAffinity>
-6.24521

> <CNNscore>
0.5124836564

> <CNNaffinity>
6.3898706436

> <CNN_VS>
3.2747042179

> <CNNaffinity_variance>
0.1565113068

$$$$
[H]c1nc2sc3c(=O)n(C4([H])C([H])([H])C([H])([H])C([H])([H])C([H])([H])C4([H])[H])c([H])nc3c2c(N(C([H])([H])[H])C([H])([H])[H])c1[H]


 23 26  0  0  0  0  0  0  0  0999 V2000
    3.7341  -47.3340  -31.1177 C   0  0  0  0  0  0  0  0  0  0  0  0
    3.0003  -47.1357  -32.2699 C   0  0  0  0  0  0  0  0  0  0  0  0
    1.7832  -46.4968  -32.3263 C   0  0  0  0  0  0  0  0  0  0  0  0
    1.3183  -46.0519  -31.1468 N   0  0  0  0  0  0  0  0  0  0  0  0
    2.0056  -46.2225  -29.9721 C   0  0  0  0  0  0  0  0  0  0  0  0
    1.6792  -45.7909  -28.3537 S   0  0  0  0  0  0  0  0  0  0  0  0
    3.0782  -46.4199  -27.6125 C   0  0  0  0  0  0  0  0  0  0  0  0
    3.5672  -46.4789  -26.2929 C   0  0  0  0  0  0  0  0  0  0  0  0
    2.8329  -45.9497  -25.4366 O   0  0  0  0  0  0  0  0  0  0  0  0
    4.7379  -47.0658  -26.0050 N   0  0  0  0  0  0  0  0  0  0  0  0
    5.4061  -47.5877  -27.0448 C   0  0  0  0  0  0  0  0  0  0  0  0
    4.9605  -47.5410  -28.2948 N   0  0  0  0  0  0  0  0  0  0  0  0
    3.7736  -46.9568  -28.6593 C   0  0  0  0  0  0  0  0  0  0  0  0
    3.2169  -46.8549  -29.8920 C   0  0  0  0  0  0  0  0  0  0  0  0
    5.2033  -47.1053  -24.6423 C   0  0  0  0  0  0  0  0  0  0  0  0
    5.5372  -45.7348  -24.1077 C   0  0  0  0  0  0  0  0  0  0  0  0
    6.1286  -45.9058  -22.7386 C   0  0  0  0  0  0  0  0  0  0  0  0
    6.0994  -47.2992  -22.2228 C   0  0  0  0  0  0  0  0  0  0  0  0
    4.8059  -48.0222  -22.4248 C   0  0  0  0  0  0  0  0  0  0  0  0
    4.1092  -47.6471  -23.7123 C   0  0  0  0  0  0  0  0  0  0  0  0
    5.2417  -49.3769  -30.9512 C   0  0  0  0  0  0  0  0  0  0  0  0
    4.9870  -47.9822  -31.2417 N   0  0  0  0  0  0  0  0  0  0  0  0
    6.1052  -47.1786  -31.6981 C   0  0  0  0  0  0  0  0  0  0  0  0
 21 22  1  0  0  0
 22 23  1  0  0  0
 22  1  1  0  0  0
  1  2  2  0  0  0
  2  3  1  0  0  0
  3  4  2  0  0  0
  4  5  1  0  0  0
  5  6  1  0  0  0
  6  7  1  0  0  0
  7  8  1  0  0  0
  8  9  2  0  0  0
  8 10  1  0  0  0
 10 15  1  0  0  0
 15 16  1  0  0  0
 16 17  1  0  0  0
 17 18  1  0  0  0
 18 19  1  0  0  0
 19 20  1  0  0  0
 10 11  1  0  0  0
 11 12  2  0  0  0
 12 13  1  0  0  0
 13 14  1  0  0  0
 14  1  1  0  0  0
 14  5  2  0  0  0
 13  7  2  0  0  0
 20 15  1  0  0  0
M  END
> <minimizedAffinity>
-3.47380

> <CNNscore>
0.5058505535

> <CNNaffinity>
5.3945899010

> <CNN_VS>
2.7288563251

> <CNNaffinity_variance>
0.0818824098

$$$$
[H]c1nc2sc3c(=O)n(C4([H])C([H])([H])C([H])([H])C([H])([H])C([H])([H])C4([H])[H])c([H])nc3c2c(N(C([H])([H])[H])C([H])([H])[H])c1[H]


 23 26  0  0  0  0  0  0  0  0999 V2000
    1.2930  -52.8925  -24.3687 C   0  0  0  0  0  0  0  0  0  0  0  0
    0.8530  -53.5633  -25.4920 C   0  0  0  0  0  0  0  0  0  0  0  0
   -0.2293  -54.4117  -25.5271 C   0  0  0  0  0  0  0  0  0  0  0  0
   -0.8712  -54.5649  -24.3566 N   0  0  0  0  0  0  0  0  0  0  0  0
   -0.4764  -53.9234  -23.2103 C   0  0  0  0  0  0  0  0  0  0  0  0
   -1.0655  -53.9237  -21.6088 S   0  0  0  0  0  0  0  0  0  0  0  0
    0.0571  -52.8552  -20.9013 C   0  0  0  0  0  0  0  0  0  0  0  0
    0.2627  -52.3376  -19.6076 C   0  0  0  0  0  0  0  0  0  0  0  0
   -0.5548  -52.7248  -18.7508 O   0  0  0  0  0  0  0  0  0  0  0  0
    1.2699  -51.4928  -19.3428 N   0  0  0  0  0  0  0  0  0  0  0  0
    2.0604  -51.1762  -20.3795 C   0  0  0  0  0  0  0  0  0  0  0  0
    1.8813  -51.6544  -21.6053 N   0  0  0  0  0  0  0  0  0  0  0  0
    0.8728  -52.5205  -21.9453 C   0  0  0  0  0  0  0  0  0  0  0  0
    0.5968  -53.0757  -23.1517 C   0  0  0  0  0  0  0  0  0  0  0  0
    1.4465  -50.9854  -18.0062 C   0  0  0  0  0  0  0  0  0  0  0  0
    2.9008  -50.8532  -17.6278 C   0  0  0  0  0  0  0  0  0  0  0  0
    2.9659  -50.4434  -16.1851 C   0  0  0  0  0  0  0  0  0  0  0  0
    1.6479  -50.1426  -15.5682 C   0  0  0  0  0  0  0  0  0  0  0  0
    0.7357  -49.3006  -16.4024 C   0  0  0  0  0  0  0  0  0  0  0  0
    0.8660  -49.5699  -17.8836 C   0  0  0  0  0  0  0  0  0  0  0  0
    2.3356  -50.6173  -24.8278 C   0  0  0  0  0  0  0  0  0  0  0  0
    2.4055  -52.0286  -24.5146 N   0  0  0  0  0  0  0  0  0  0  0  0
    3.7225  -52.6096  -24.3345 C   0  0  0  0  0  0  0  0  0  0  0  0
 21 22  1  0  0  0
 22 23  1  0  0  0
 22  1  1  0  0  0
  1  2  2  0  0  0
  2  3  1  0  0  0
  3  4  2  0  0  0
  4  5  1  0  0  0
  5  6  1  0  0  0
  6  7  1  0  0  0
  7  8  1  0  0  0
  8  9  2  0  0  0
  8 10  1  0  0  0
 10 15  1  0  0  0
 15 16  1  0  0  0
 16 17  1  0  0  0
 17 18  1  0  0  0
 18 19  1  0  0  0
 19 20  1  0  0  0
 10 11  1  0  0  0
 11 12  2  0  0  0
 12 13  1  0  0  0
 13 14  1  0  0  0
 14  1  1  0  0  0
 14  5  2  0  0  0
 13  7  2  0  0  0
 20 15  1  0  0  0
M  END
> <minimizedAffinity>
-6.87229

> <CNNscore>
0.5017896295

> <CNNaffinity>
6.4393105507

> <CNN_VS>
3.2311792374

> <CNNaffinity_variance>
0.1960589290

$$$$
[H]c1nc2sc3c(=O)n(C4([H])C([H])([H])C([H])([H])C([H])([H])C([H])([H])C4([H])[H])c([H])nc3c2c(N(C([H])([H])[H])C([H])([H])[H])c1[H]


 23 26  0  0  0  0  0  0  0  0999 V2000
    1.2707  -51.8982  -22.7261 C   0  0  0  0  0  0  0  0  0  0  0  0
    1.1529  -52.3620  -24.0208 C   0  0  0  0  0  0  0  0  0  0  0  0
    0.2374  -53.2997  -24.4395 C   0  0  0  0  0  0  0  0  0  0  0  0
   -0.5787  -53.7670  -23.4798 N   0  0  0  0  0  0  0  0  0  0  0  0
   -0.5046  -53.3415  -22.1779 C   0  0  0  0  0  0  0  0  0  0  0  0
   -1.3724  -53.7454  -20.7652 S   0  0  0  0  0  0  0  0  0  0  0  0
   -0.5755  -52.7313  -19.6521 C   0  0  0  0  0  0  0  0  0  0  0  0
   -0.6934  -52.4783  -18.2715 C   0  0  0  0  0  0  0  0  0  0  0  0
   -1.5866  -53.1265  -17.6932 O   0  0  0  0  0  0  0  0  0  0  0  0
    0.1072  -51.6011  -17.6490 N   0  0  0  0  0  0  0  0  0  0  0  0
    1.0181  -50.9866  -18.4187 C   0  0  0  0  0  0  0  0  0  0  0  0
    1.1432  -51.2126  -19.7212 N   0  0  0  0  0  0  0  0  0  0  0  0
    0.3586  -52.0949  -20.4202 C   0  0  0  0  0  0  0  0  0  0  0  0
    0.3977  -52.4106  -21.7388 C   0  0  0  0  0  0  0  0  0  0  0  0
   -0.0453  -51.3703  -16.2352 C   0  0  0  0  0  0  0  0  0  0  0  0
    1.2530  -50.9842  -15.5713 C   0  0  0  0  0  0  0  0  0  0  0  0
    1.0060  -50.8954  -14.0932 C   0  0  0  0  0  0  0  0  0  0  0  0
   -0.4163  -51.0564  -13.6939 C   0  0  0  0  0  0  0  0  0  0  0  0
   -1.3977  -50.2926  -14.5248 C   0  0  0  0  0  0  0  0  0  0  0  0
   -0.9969  -50.1938  -15.9785 C   0  0  0  0  0  0  0  0  0  0  0  0
    2.0149  -49.4756  -22.4995 C   0  0  0  0  0  0  0  0  0  0  0  0
    2.2465  -50.9039  -22.4720 N   0  0  0  0  0  0  0  0  0  0  0  0
    3.5880  -51.3584  -22.1586 C   0  0  0  0  0  0  0  0  0  0  0  0
 21 22  1  0  0  0
 22 23  1  0  0  0
 22  1  1  0  0  0
  1  2  2  0  0  0
  2  3  1  0  0  0
  3  4  2  0  0  0
  4  5  1  0  0  0
  5  6  1  0  0  0
  6  7  1  0  0  0
  7  8  1  0  0  0
  8  9  2  0  0  0
  8 10  1  0  0  0
 10 15  1  0  0  0
 15 16  1  0  0  0
 16 17  1  0  0  0
 17 18  1  0  0  0
 18 19  1  0  0  0
 19 20  1  0  0  0
 10 11  1  0  0  0
 11 12  2  0  0  0
 12 13  1  0  0  0
 13 14  1  0  0  0
 14  1  1  0  0  0
 14  5  2  0  0  0
 13  7  2  0  0  0
 20 15  1  0  0  0
M  END
> <minimizedAffinity>
-6.37414

> <CNNscore>
0.4650508463

> <CNNaffinity>
6.1583452225

> <CNN_VS>
2.8639435768

> <CNNaffinity_variance>
0.1678367555

$$$$
[H]c1nc2sc3c(=O)n(C4([H])C([H])([H])C([H])([H])C([H])([H])C([H])([H])C4([H])[H])c([H])nc3c2c(N(C([H])([H])[H])C([H])([H])[H])c1[H]


 23 26  0  0  0  0  0  0  0  0999 V2000
    0.6347  -52.3618  -21.1500 C   0  0  0  0  0  0  0  0  0  0  0  0
    0.2344  -53.2657  -22.1133 C   0  0  0  0  0  0  0  0  0  0  0  0
   -0.7446  -54.2166  -21.9402 C   0  0  0  0  0  0  0  0  0  0  0  0
   -1.3226  -54.2248  -20.7273 N   0  0  0  0  0  0  0  0  0  0  0  0
   -0.9631  -53.3502  -19.7337 C   0  0  0  0  0  0  0  0  0  0  0  0
   -1.4908  -53.1260  -18.1265 S   0  0  0  0  0  0  0  0  0  0  0  0
   -0.4729  -51.8352  -17.6790 C   0  0  0  0  0  0  0  0  0  0  0  0
   -0.2817  -51.0753  -16.5086 C   0  0  0  0  0  0  0  0  0  0  0  0
   -1.0186  -51.3873  -15.5536 O   0  0  0  0  0  0  0  0  0  0  0  0
    0.6312  -50.0948  -16.4511 N   0  0  0  0  0  0  0  0  0  0  0  0
    1.3430  -49.8871  -17.5692 C   0  0  0  0  0  0  0  0  0  0  0  0
    1.1760  -50.5933  -18.6812 N   0  0  0  0  0  0  0  0  0  0  0  0
    0.2615  -51.6084  -18.8089 C   0  0  0  0  0  0  0  0  0  0  0  0
    0.0078  -52.3968  -19.8831 C   0  0  0  0  0  0  0  0  0  0  0  0
    0.7963  -49.3404  -15.2350 C   0  0  0  0  0  0  0  0  0  0  0  0
    2.2301  -48.9354  -14.9986 C   0  0  0  0  0  0  0  0  0  0  0  0
    2.3060  -48.2735  -13.6534 C   0  0  0  0  0  0  0  0  0  0  0  0
    0.9912  -48.0623  -12.9938 C   0  0  0  0  0  0  0  0  0  0  0  0
   -0.0830  -47.5204  -13.8821 C   0  0  0  0  0  0  0  0  0  0  0  0
    0.0100  -48.0242  -15.3038 C   0  0  0  0  0  0  0  0  0  0  0  0
    3.0541  -51.5827  -21.2671 C   0  0  0  0  0  0  0  0  0  0  0  0
    1.6354  -51.4249  -21.5055 N   0  0  0  0  0  0  0  0  0  0  0  0
    1.1986  -50.2078  -22.1628 C   0  0  0  0  0  0  0  0  0  0  0  0
 21 22  1  0  0  0
 22 23  1  0  0  0
 22  1  1  0  0  0
  1  2  2  0  0  0
  2  3  1  0  0  0
  3  4  2  0  0  0
  4  5  1  0  0  0
  5  6  1  0  0  0
  6  7  1  0  0  0
  7  8  1  0  0  0
  8  9  2  0  0  0
  8 10  1  0  0  0
 10 15  1  0  0  0
 15 16  1  0  0  0
 16 17  1  0  0  0
 17 18  1  0  0  0
 18 19  1  0  0  0
 19 20  1  0  0  0
 10 11  1  0  0  0
 11 12  2  0  0  0
 12 13  1  0  0  0
 13 14  1  0  0  0
 14  1  1  0  0  0
 14  5  2  0  0  0
 13  7  2  0  0  0
 20 15  1  0  0  0
M  END
> <minimizedAffinity>
-5.50034

> <CNNscore>
0.4623029828

> <CNNaffinity>
5.9011054039

> <CNN_VS>
2.7280986309

> <CNNaffinity_variance>
0.1442940235

$$$$
[H]c1nc2sc3c(=O)n(C4([H])C([H])([H])C([H])([H])C([H])([H])C([H])([H])C4([H])[H])c([H])nc3c2c(N(C([H])([H])[H])C([H])([H])[H])c1[H]


 23 26  0  0  0  0  0  0  0  0999 V2000
    0.7420  -51.1517  -17.7686 C   0  0  0  0  0  0  0  0  0  0  0  0
    0.1172  -51.3680  -16.5569 C   0  0  0  0  0  0  0  0  0  0  0  0
   -0.9387  -52.2275  -16.3594 C   0  0  0  0  0  0  0  0  0  0  0  0
   -1.3548  -52.8801  -17.4577 N   0  0  0  0  0  0  0  0  0  0  0  0
   -0.7709  -52.7025  -18.6861 C   0  0  0  0  0  0  0  0  0  0  0  0
   -1.0741  -53.3615  -20.2307 S   0  0  0  0  0  0  0  0  0  0  0  0
    0.1310  -52.5486  -21.1192 C   0  0  0  0  0  0  0  0  0  0  0  0
    0.5374  -52.5349  -22.4678 C   0  0  0  0  0  0  0  0  0  0  0  0
   -0.1101  -53.2888  -23.2192 O   0  0  0  0  0  0  0  0  0  0  0  0
    1.5484  -51.7601  -22.8870 N   0  0  0  0  0  0  0  0  0  0  0  0
    2.1411  -51.0069  -21.9482 C   0  0  0  0  0  0  0  0  0  0  0  0
    1.7713  -51.0074  -20.6729 N   0  0  0  0  0  0  0  0  0  0  0  0
    0.7475  -51.7746  -20.1768 C   0  0  0  0  0  0  0  0  0  0  0  0
    0.2798  -51.8530  -18.9060 C   0  0  0  0  0  0  0  0  0  0  0  0
    1.9339  -51.7746  -24.2749 C   0  0  0  0  0  0  0  0  0  0  0  0
    2.7896  -52.9673  -24.6226 C   0  0  0  0  0  0  0  0  0  0  0  0
    3.2362  -52.8142  -26.0476 C   0  0  0  0  0  0  0  0  0  0  0  0
    2.6314  -51.6612  -26.7639 C   0  0  0  0  0  0  0  0  0  0  0  0
    1.1590  -51.4926  -26.5632 C   0  0  0  0  0  0  0  0  0  0  0  0
    0.6983  -51.8857  -25.1787 C   0  0  0  0  0  0  0  0  0  0  0  0
    1.7667  -48.8492  -18.1192 C   0  0  0  0  0  0  0  0  0  0  0  0
    1.8392  -50.2567  -17.7900 N   0  0  0  0  0  0  0  0  0  0  0  0
    3.1419  -50.7989  -17.4534 C   0  0  0  0  0  0  0  0  0  0  0  0
 21 22  1  0  0  0
 22 23  1  0  0  0
 22  1  1  0  0  0
  1  2  2  0  0  0
  2  3  1  0  0  0
  3  4  2  0  0  0
  4  5  1  0  0  0
  5  6  1  0  0  0
  6  7  1  0  0  0
  7  8  1  0  0  0
  8  9  2  0  0  0
  8 10  1  0  0  0
 10 15  1  0  0  0
 15 16  1  0  0  0
 16 17  1  0  0  0
 17 18  1  0  0  0
 18 19  1  0  0  0
 19 20  1  0  0  0
 10 11  1  0  0  0
 11 12  2  0  0  0
 12 13  1  0  0  0
 13 14  1  0  0  0
 14  1  1  0  0  0
 14  5  2  0  0  0
 13  7  2  0  0  0
 20 15  1  0  0  0
M  END
> <minimizedAffinity>
-6.70025

> <CNNscore>
0.4350819588

> <CNNaffinity>
6.2322273254

> <CNN_VS>
2.7115297318

> <CNNaffinity_variance>
0.1642230898

$$$$
[H]c1c([H])c(-c2c(C([H])([H])C([H])([H])[H])c(C3=NC4(C(=O)N3[H])C([H])([H])C([H])([H])C4([H])[H])nn2-c2c([H])c([H])c(Cl)c([H])c2Cl)c([H])c([H])c1Cl


 32 36  0  0  0  0  0  0  0  0999 V2000
    1.6303  -51.7545  -25.5346 C   0  0  0  0  0  0  0  0  0  0  0  0
    0.3701  -52.1080  -25.9107 C   0  0  0  0  0  0  0  0  0  0  0  0
   -0.2229  -52.4758  -24.7306 N   0  0  0  0  0  0  0  0  0  0  0  0
    0.6019  -52.3550  -23.7069 N   0  0  0  0  0  0  0  0  0  0  0  0
    1.7748  -51.9049  -24.1399 C   0  0  0  0  0  0  0  0  0  0  0  0
   -0.3376  -52.1031  -27.1798 C   0  0  0  0  0  0  0  0  0  0  0  0
   -0.3863  -53.1946  -27.9440 N   0  0  0  0  0  0  0  0  0  0  0  0
   -1.1218  -52.9808  -29.1339 C   0  0  0  0  0  0  0  0  0  0  0  0
   -2.2076  -53.9862  -29.4443 C   0  0  0  0  0  0  0  0  0  0  0  0
   -1.3242  -54.5676  -30.5073 C   0  0  0  0  0  0  0  0  0  0  0  0
   -0.4414  -53.3447  -30.4307 C   0  0  0  0  0  0  0  0  0  0  0  0
   -1.6210  -51.5987  -29.0717 C   0  0  0  0  0  0  0  0  0  0  0  0
   -2.3403  -50.9538  -29.8659 O   0  0  0  0  0  0  0  0  0  0  0  0
   -1.0735  -51.1002  -27.8183 N   0  0  0  0  0  0  0  0  0  0  0  0
   -1.2676  -50.1202  -27.5258 H   0  0  0  0  0  0  0  0  0  0  0  0
    0.2486  -52.6592  -22.3569 C   0  0  0  0  0  0  0  0  0  0  0  0
    1.0731  -53.3699  -21.4888 C   0  0  0  0  0  0  0  0  0  0  0  0
    0.6840  -53.6644  -20.2071 C   0  0  0  0  0  0  0  0  0  0  0  0
   -0.5379  -53.2627  -19.7438 C   0  0  0  0  0  0  0  0  0  0  0  0
   -1.0975  -53.6042  -18.1186 Cl  0  0  0  0  0  0  0  0  0  0  0  0
   -1.3771  -52.5610  -20.5717 C   0  0  0  0  0  0  0  0  0  0  0  0
   -0.9715  -52.2636  -21.8839 C   0  0  0  0  0  0  0  0  0  0  0  0
   -2.1165  -51.3974  -22.9060 Cl  0  0  0  0  0  0  0  0  0  0  0  0
    2.9227  -51.4556  -23.3784 C   0  0  0  0  0  0  0  0  0  0  0  0
    4.0506  -52.2251  -23.2772 C   0  0  0  0  0  0  0  0  0  0  0  0
    5.1021  -51.8546  -22.4487 C   0  0  0  0  0  0  0  0  0  0  0  0
    5.0668  -50.7051  -21.6933 C   0  0  0  0  0  0  0  0  0  0  0  0
    6.3846  -50.2235  -20.6450 Cl  0  0  0  0  0  0  0  0  0  0  0  0
    3.9362  -49.9213  -21.7859 C   0  0  0  0  0  0  0  0  0  0  0  0
    2.8985  -50.3044  -22.6134 C   0  0  0  0  0  0  0  0  0  0  0  0
    2.9003  -49.8481  -26.4434 C   0  0  0  0  0  0  0  0  0  0  0  0
    2.7044  -51.3923  -26.5157 C   0  0  0  0  0  0  0  0  0  0  0  0
 31 32  1  0  0  0
 32  1  1  0  0  0
  1  2  1  0  0  0
  2  6  1  0  0  0
  6  7  2  0  0  0
  7  8  1  0  0  0
  8  9  1  0  0  0
  9 10  1  0  0  0
 10 11  1  0  0  0
  8 12  1  0  0  0
 12 13  2  0  0  0
 12 14  1  0  0  0
  2  3  2  0  0  0
  3  4  1  0  0  0
  4 16  1  0  0  0
 16 17  2  0  0  0
 17 18  1  0  0  0
 18 19  2  0  0  0
 19 20  1  0  0  0
 19 21  1  0  0  0
 21 22  2  0  0  0
 22 23  1  0  0  0
  4  5  1  0  0  0
  5 24  1  0  0  0
 24 25  2  0  0  0
 25 26  1  0  0  0
 26 27  2  0  0  0
 27 28  1  0  0  0
 27 29  1  0  0  0
 29 30  2  0  0  0
  5  1  2  0  0  0
 30 24  1  0  0  0
 14  6  1  0  0  0
 22 16  1  0  0  0
 11  8  1  0  0  0
 14 15  1  0  0  0
M  END
> <minimizedAffinity>
4.63433

> <CNNscore>
0.4612498283

> <CNNaffinity>
7.4108514786

> <CNN_VS>
3.4182538986

> <CNNaffinity_variance>
1.3346316814

$$$$
[H]c1c([H])c(-c2c(C([H])([H])C([H])([H])[H])c(C3=NC4(C(=O)N3[H])C([H])([H])C([H])([H])C4([H])[H])nn2-c2c([H])c([H])c(Cl)c([H])c2Cl)c([H])c([H])c1Cl


 32 36  0  0  0  0  0  0  0  0999 V2000
    2.7751  -50.6495  -26.5479 C   0  0  0  0  0  0  0  0  0  0  0  0
    2.1368  -51.1301  -25.4450 C   0  0  0  0  0  0  0  0  0  0  0  0
    2.6416  -50.3642  -24.4261 N   0  0  0  0  0  0  0  0  0  0  0  0
    3.5172  -49.4785  -24.8637 N   0  0  0  0  0  0  0  0  0  0  0  0
    3.6435  -49.6008  -26.1809 C   0  0  0  0  0  0  0  0  0  0  0  0
    1.1196  -52.1467  -25.2369 C   0  0  0  0  0  0  0  0  0  0  0  0
    1.1874  -53.3245  -25.8581 N   0  0  0  0  0  0  0  0  0  0  0  0
    0.1035  -54.1694  -25.5203 C   0  0  0  0  0  0  0  0  0  0  0  0
    0.4560  -55.5673  -25.0647 C   0  0  0  0  0  0  0  0  0  0  0  0
   -0.0073  -56.0852  -26.3934 C   0  0  0  0  0  0  0  0  0  0  0  0
   -0.6818  -54.7614  -26.6647 C   0  0  0  0  0  0  0  0  0  0  0  0
   -0.7070  -53.4335  -24.5380 C   0  0  0  0  0  0  0  0  0  0  0  0
   -1.7436  -53.7655  -23.9221 O   0  0  0  0  0  0  0  0  0  0  0  0
   -0.0148  -52.1584  -24.4194 N   0  0  0  0  0  0  0  0  0  0  0  0
   -0.3906  -51.4264  -23.7819 H   0  0  0  0  0  0  0  0  0  0  0  0
    4.1943  -48.5430  -24.0233 C   0  0  0  0  0  0  0  0  0  0  0  0
    4.1440  -47.1644  -24.2123 C   0  0  0  0  0  0  0  0  0  0  0  0
    4.8315  -46.3015  -23.3978 C   0  0  0  0  0  0  0  0  0  0  0  0
    5.5927  -46.7786  -22.3672 C   0  0  0  0  0  0  0  0  0  0  0  0
    6.4953  -45.7330  -21.2887 Cl  0  0  0  0  0  0  0  0  0  0  0  0
    5.6662  -48.1315  -22.1515 C   0  0  0  0  0  0  0  0  0  0  0  0
    4.9594  -49.0094  -22.9909 C   0  0  0  0  0  0  0  0  0  0  0  0
    5.1338  -50.7359  -22.6834 Cl  0  0  0  0  0  0  0  0  0  0  0  0
    4.3454  -48.7475  -27.1182 C   0  0  0  0  0  0  0  0  0  0  0  0
    5.7016  -48.5759  -27.0410 C   0  0  0  0  0  0  0  0  0  0  0  0
    6.3587  -47.6644  -27.8575 C   0  0  0  0  0  0  0  0  0  0  0  0
    5.6884  -46.8933  -28.7791 C   0  0  0  0  0  0  0  0  0  0  0  0
    6.5024  -45.7408  -29.8165 Cl  0  0  0  0  0  0  0  0  0  0  0  0
    4.3220  -47.0564  -28.8666 C   0  0  0  0  0  0  0  0  0  0  0  0
    3.6830  -47.9660  -28.0465 C   0  0  0  0  0  0  0  0  0  0  0  0
    4.0010  -51.9329  -28.2576 C   0  0  0  0  0  0  0  0  0  0  0  0
    2.6362  -51.2678  -27.9066 C   0  0  0  0  0  0  0  0  0  0  0  0
 31 32  1  0  0  0
 32  1  1  0  0  0
  1  2  1  0  0  0
  2  6  1  0  0  0
  6  7  2  0  0  0
  7  8  1  0  0  0
  8  9  1  0  0  0
  9 10  1  0  0  0
 10 11  1  0  0  0
  8 12  1  0  0  0
 12 13  2  0  0  0
 12 14  1  0  0  0
  2  3  2  0  0  0
  3  4  1  0  0  0
  4 16  1  0  0  0
 16 17  2  0  0  0
 17 18  1  0  0  0
 18 19  2  0  0  0
 19 20  1  0  0  0
 19 21  1  0  0  0
 21 22  2  0  0  0
 22 23  1  0  0  0
  4  5  1  0  0  0
  5 24  1  0  0  0
 24 25  2  0  0  0
 25 26  1  0  0  0
 26 27  2  0  0  0
 27 28  1  0  0  0
 27 29  1  0  0  0
 29 30  2  0  0  0
  5  1  2  0  0  0
 30 24  1  0  0  0
 14  6  1  0  0  0
 22 16  1  0  0  0
 11  8  1  0  0  0
 14 15  1  0  0  0
M  END
> <minimizedAffinity>
-0.15795

> <CNNscore>
0.3733517230

> <CNNaffinity>
6.6303534508

> <CNN_VS>
2.4754538536

> <CNNaffinity_variance>
1.9054027796

$$$$
[H]c1c([H])c(-c2c(C([H])([H])C([H])([H])[H])c(C3=NC4(C(=O)N3[H])C([H])([H])C([H])([H])C4([H])[H])nn2-c2c([H])c([H])c(Cl)c([H])c2Cl)c([H])c([H])c1Cl


 32 36  0  0  0  0  0  0  0  0999 V2000
    2.1190  -51.8787  -24.6763 C   0  0  0  0  0  0  0  0  0  0  0  0
    0.9607  -52.3538  -25.2122 C   0  0  0  0  0  0  0  0  0  0  0  0
    0.2066  -52.6688  -24.1114 N   0  0  0  0  0  0  0  0  0  0  0  0
    0.8446  -52.4054  -22.9862 N   0  0  0  0  0  0  0  0  0  0  0  0
    2.0430  -51.9056  -23.2685 C   0  0  0  0  0  0  0  0  0  0  0  0
    0.4705  -52.5033  -26.5719 C   0  0  0  0  0  0  0  0  0  0  0  0
   -0.8349  -52.5998  -26.8254 N   0  0  0  0  0  0  0  0  0  0  0  0
   -1.1014  -52.7388  -28.2083 C   0  0  0  0  0  0  0  0  0  0  0  0
   -2.1203  -51.7891  -28.7965 C   0  0  0  0  0  0  0  0  0  0  0  0
   -3.1018  -52.9215  -28.8485 C   0  0  0  0  0  0  0  0  0  0  0  0
   -1.9733  -53.8991  -28.6214 C   0  0  0  0  0  0  0  0  0  0  0  0
    0.2001  -52.6780  -28.8907 C   0  0  0  0  0  0  0  0  0  0  0  0
    0.4871  -52.7242  -30.1071 O   0  0  0  0  0  0  0  0  0  0  0  0
    1.1482  -52.5448  -27.7942 N   0  0  0  0  0  0  0  0  0  0  0  0
    2.1673  -52.4896  -27.9992 H   0  0  0  0  0  0  0  0  0  0  0  0
    0.2949  -52.6258  -21.6865 C   0  0  0  0  0  0  0  0  0  0  0  0
    0.0806  -53.8917  -21.1478 C   0  0  0  0  0  0  0  0  0  0  0  0
   -0.4751  -54.0598  -19.9053 C   0  0  0  0  0  0  0  0  0  0  0  0
   -0.8372  -52.9756  -19.1552 C   0  0  0  0  0  0  0  0  0  0  0  0
   -1.5510  -53.1182  -17.5611 Cl  0  0  0  0  0  0  0  0  0  0  0  0
   -0.6415  -51.7128  -19.6544 C   0  0  0  0  0  0  0  0  0  0  0  0
   -0.0719  -51.5488  -20.9287 C   0  0  0  0  0  0  0  0  0  0  0  0
    0.1104  -49.9006  -21.5252 Cl  0  0  0  0  0  0  0  0  0  0  0  0
    3.0221  -51.3127  -22.3801 C   0  0  0  0  0  0  0  0  0  0  0  0
    2.8296  -50.0677  -21.8439 C   0  0  0  0  0  0  0  0  0  0  0  0
    3.8201  -49.4468  -21.0936 C   0  0  0  0  0  0  0  0  0  0  0  0
    5.0354  -50.0445  -20.8509 C   0  0  0  0  0  0  0  0  0  0  0  0
    6.2937  -49.2755  -19.9061 Cl  0  0  0  0  0  0  0  0  0  0  0  0
    5.2420  -51.2985  -21.3857 C   0  0  0  0  0  0  0  0  0  0  0  0
    4.2476  -51.9019  -22.1308 C   0  0  0  0  0  0  0  0  0  0  0  0
    3.9176  -52.8446  -26.0567 C   0  0  0  0  0  0  0  0  0  0  0  0
    3.3149  -51.5176  -25.5053 C   0  0  0  0  0  0  0  0  0  0  0  0
 31 32  1  0  0  0
 32  1  1  0  0  0
  1  2  1  0  0  0
  2  6  1  0  0  0
  6  7  2  0  0  0
  7  8  1  0  0  0
  8  9  1  0  0  0
  9 10  1  0  0  0
 10 11  1  0  0  0
  8 12  1  0  0  0
 12 13  2  0  0  0
 12 14  1  0  0  0
  2  3  2  0  0  0
  3  4  1  0  0  0
  4 16  1  0  0  0
 16 17  2  0  0  0
 17 18  1  0  0  0
 18 19  2  0  0  0
 19 20  1  0  0  0
 19 21  1  0  0  0
 21 22  2  0  0  0
 22 23  1  0  0  0
  4  5  1  0  0  0
  5 24  1  0  0  0
 24 25  2  0  0  0
 25 26  1  0  0  0
 26 27  2  0  0  0
 27 28  1  0  0  0
 27 29  1  0  0  0
 29 30  2  0  0  0
  5  1  2  0  0  0
 30 24  1  0  0  0
 14  6  1  0  0  0
 22 16  1  0  0  0
 11  8  1  0  0  0
 14 15  1  0  0  0
M  END
> <minimizedAffinity>
-4.44687

> <CNNscore>
0.2820569277

> <CNNaffinity>
7.2321915627

> <CNN_VS>
2.0398898125

> <CNNaffinity_variance>
0.4906491339

$$$$
[H]c1c([H])c(-c2c(C([H])([H])C([H])([H])[H])c(C3=NC4(C(=O)N3[H])C([H])([H])C([H])([H])C4([H])[H])nn2-c2c([H])c([H])c(Cl)c([H])c2Cl)c([H])c([H])c1Cl


 32 36  0  0  0  0  0  0  0  0999 V2000
    1.0335  -51.4344  -20.9200 C   0  0  0  0  0  0  0  0  0  0  0  0
    1.1307  -51.6095  -22.2670 C   0  0  0  0  0  0  0  0  0  0  0  0
    2.0682  -50.6819  -22.6417 N   0  0  0  0  0  0  0  0  0  0  0  0
    2.5178  -49.9923  -21.6097 N   0  0  0  0  0  0  0  0  0  0  0  0
    1.9153  -50.4158  -20.5036 C   0  0  0  0  0  0  0  0  0  0  0  0
    0.5142  -52.5303  -23.2070 C   0  0  0  0  0  0  0  0  0  0  0  0
    0.8391  -52.5128  -24.5000 N   0  0  0  0  0  0  0  0  0  0  0  0
    0.1279  -53.4854  -25.2423 C   0  0  0  0  0  0  0  0  0  0  0  0
    0.9532  -54.3987  -26.1203 C   0  0  0  0  0  0  0  0  0  0  0  0
    0.4695  -53.6360  -27.3173 C   0  0  0  0  0  0  0  0  0  0  0  0
   -0.6078  -53.0036  -26.4686 C   0  0  0  0  0  0  0  0  0  0  0  0
   -0.7058  -54.2177  -24.2769 C   0  0  0  0  0  0  0  0  0  0  0  0
   -1.4852  -55.1826  -24.4379 O   0  0  0  0  0  0  0  0  0  0  0  0
   -0.4230  -53.5500  -23.0147 N   0  0  0  0  0  0  0  0  0  0  0  0
   -0.8998  -53.8687  -22.1460 H   0  0  0  0  0  0  0  0  0  0  0  0
    3.5071  -48.9666  -21.7050 C   0  0  0  0  0  0  0  0  0  0  0  0
    4.8737  -49.2041  -21.5848 C   0  0  0  0  0  0  0  0  0  0  0  0
    5.7895  -48.1857  -21.6558 C   0  0  0  0  0  0  0  0  0  0  0  0
    5.3788  -46.8960  -21.8487 C   0  0  0  0  0  0  0  0  0  0  0  0
    6.4943  -45.5482  -21.9497 Cl  0  0  0  0  0  0  0  0  0  0  0  0
    4.0396  -46.6245  -21.9707 C   0  0  0  0  0  0  0  0  0  0  0  0
    3.1072  -47.6734  -21.8963 C   0  0  0  0  0  0  0  0  0  0  0  0
    1.4015  -47.2472  -22.0176 Cl  0  0  0  0  0  0  0  0  0  0  0  0
    2.1999  -50.0881  -19.1212 C   0  0  0  0  0  0  0  0  0  0  0  0
    1.7432  -48.9254  -18.5606 C   0  0  0  0  0  0  0  0  0  0  0  0
    2.1176  -48.5505  -17.2766 C   0  0  0  0  0  0  0  0  0  0  0  0
    2.9587  -49.3206  -16.5067 C   0  0  0  0  0  0  0  0  0  0  0  0
    3.4391  -48.8626  -14.8860 Cl  0  0  0  0  0  0  0  0  0  0  0  0
    3.4260  -50.4941  -17.0598 C   0  0  0  0  0  0  0  0  0  0  0  0
    3.0454  -50.8521  -18.3386 C   0  0  0  0  0  0  0  0  0  0  0  0
    0.6885  -53.4777  -19.5861 C   0  0  0  0  0  0  0  0  0  0  0  0
    0.0268  -52.1536  -20.0732 C   0  0  0  0  0  0  0  0  0  0  0  0
 31 32  1  0  0  0
 32  1  1  0  0  0
  1  2  1  0  0  0
  2  6  1  0  0  0
  6  7  2  0  0  0
  7  8  1  0  0  0
  8  9  1  0  0  0
  9 10  1  0  0  0
 10 11  1  0  0  0
  8 12  1  0  0  0
 12 13  2  0  0  0
 12 14  1  0  0  0
  2  3  2  0  0  0
  3  4  1  0  0  0
  4 16  1  0  0  0
 16 17  2  0  0  0
 17 18  1  0  0  0
 18 19  2  0  0  0
 19 20  1  0  0  0
 19 21  1  0  0  0
 21 22  2  0  0  0
 22 23  1  0  0  0
  4  5  1  0  0  0
  5 24  1  0  0  0
 24 25  2  0  0  0
 25 26  1  0  0  0
 26 27  2  0  0  0
 27 28  1  0  0  0
 27 29  1  0  0  0
 29 30  2  0  0  0
  5  1  2  0  0  0
 30 24  1  0  0  0
 14  6  1  0  0  0
 22 16  1  0  0  0
 11  8  1  0  0  0
 14 15  1  0  0  0
M  END
> <minimizedAffinity>
-6.11166

> <CNNscore>
0.2786101699

> <CNNaffinity>
7.1862115860

> <CNN_VS>
2.0021517277

> <CNNaffinity_variance>
0.5532435179

$$$$
[H]c1c([H])c(-c2c(C([H])([H])C([H])([H])[H])c(C3=NC4(C(=O)N3[H])C([H])([H])C([H])([H])C4([H])[H])nn2-c2c([H])c([H])c(Cl)c([H])c2Cl)c([H])c([H])c1Cl


 32 36  0  0  0  0  0  0  0  0999 V2000
    3.3611  -51.1574  -23.9003 C   0  0  0  0  0  0  0  0  0  0  0  0
    2.3960  -52.0098  -24.3436 C   0  0  0  0  0  0  0  0  0  0  0  0
    1.6204  -52.2181  -23.2325 N   0  0  0  0  0  0  0  0  0  0  0  0
    2.0667  -51.5454  -22.1879 N   0  0  0  0  0  0  0  0  0  0  0  0
    3.1491  -50.8590  -22.5385 C   0  0  0  0  0  0  0  0  0  0  0  0
    2.0923  -52.5971  -25.6376 C   0  0  0  0  0  0  0  0  0  0  0  0
    0.8585  -52.5508  -26.1411 N   0  0  0  0  0  0  0  0  0  0  0  0
    0.7746  -53.1780  -27.4069 C   0  0  0  0  0  0  0  0  0  0  0  0
    0.1324  -52.3746  -28.5152 C   0  0  0  0  0  0  0  0  0  0  0  0
   -1.0873  -53.2384  -28.3941 C   0  0  0  0  0  0  0  0  0  0  0  0
   -0.2937  -54.2300  -27.5771 C   0  0  0  0  0  0  0  0  0  0  0  0
    2.1350  -53.6279  -27.7391 C   0  0  0  0  0  0  0  0  0  0  0  0
    2.5786  -54.2045  -28.7564 O   0  0  0  0  0  0  0  0  0  0  0  0
    2.9111  -53.2420  -26.5696 N   0  0  0  0  0  0  0  0  0  0  0  0
    3.9292  -53.4564  -26.5342 H   0  0  0  0  0  0  0  0  0  0  0  0
    1.4484  -51.5678  -20.9006 C   0  0  0  0  0  0  0  0  0  0  0  0
    1.3915  -52.7024  -20.0956 C   0  0  0  0  0  0  0  0  0  0  0  0
    0.7639  -52.6881  -18.8762 C   0  0  0  0  0  0  0  0  0  0  0  0
    0.1713  -51.5458  -18.4147 C   0  0  0  0  0  0  0  0  0  0  0  0
   -0.6462  -51.4575  -16.8671 Cl  0  0  0  0  0  0  0  0  0  0  0  0
    0.2071  -50.4087  -19.1815 C   0  0  0  0  0  0  0  0  0  0  0  0
    0.8516  -50.4315  -20.4301 C   0  0  0  0  0  0  0  0  0  0  0  0
    0.8217  -48.9480  -21.3810 Cl  0  0  0  0  0  0  0  0  0  0  0  0
    3.8784  -49.8528  -21.7933 C   0  0  0  0  0  0  0  0  0  0  0  0
    3.8278  -48.5320  -22.1503 C   0  0  0  0  0  0  0  0  0  0  0  0
    4.6217  -47.5848  -21.5163 C   0  0  0  0  0  0  0  0  0  0  0  0
    5.4923  -47.9200  -20.5051 C   0  0  0  0  0  0  0  0  0  0  0  0
    6.4989  -46.7376  -19.6952 Cl  0  0  0  0  0  0  0  0  0  0  0  0
    5.5531  -49.2472  -20.1363 C   0  0  0  0  0  0  0  0  0  0  0  0
    4.7581  -50.1773  -20.7775 C   0  0  0  0  0  0  0  0  0  0  0  0
    4.0572  -49.5381  -25.6227 C   0  0  0  0  0  0  0  0  0  0  0  0
    4.5274  -50.7348  -24.7422 C   0  0  0  0  0  0  0  0  0  0  0  0
 31 32  1  0  0  0
 32  1  1  0  0  0
  1  2  1  0  0  0
  2  6  1  0  0  0
  6  7  2  0  0  0
  7  8  1  0  0  0
  8  9  1  0  0  0
  9 10  1  0  0  0
 10 11  1  0  0  0
  8 12  1  0  0  0
 12 13  2  0  0  0
 12 14  1  0  0  0
  2  3  2  0  0  0
  3  4  1  0  0  0
  4 16  1  0  0  0
 16 17  2  0  0  0
 17 18  1  0  0  0
 18 19  2  0  0  0
 19 20  1  0  0  0
 19 21  1  0  0  0
 21 22  2  0  0  0
 22 23  1  0  0  0
  4  5  1  0  0  0
  5 24  1  0  0  0
 24 25  2  0  0  0
 25 26  1  0  0  0
 26 27  2  0  0  0
 27 28  1  0  0  0
 27 29  1  0  0  0
 29 30  2  0  0  0
  5  1  2  0  0  0
 30 24  1  0  0  0
 14  6  1  0  0  0
 22 16  1  0  0  0
 11  8  1  0  0  0
 14 15  1  0  0  0
M  END
> <minimizedAffinity>
-6.85717

> <CNNscore>
0.2182042003

> <CNNaffinity>
7.1073064804

> <CNN_VS>
1.5508440733

> <CNNaffinity_variance>
0.4937929213

$$$$
[H]c1c([H])c(-c2c(C([H])([H])C([H])([H])[H])c(C3=NC4(C(=O)N3[H])C([H])([H])C([H])([H])C4([H])[H])nn2-c2c([H])c([H])c(Cl)c([H])c2Cl)c([H])c([H])c1Cl


 32 36  0  0  0  0  0  0  0  0999 V2000
    2.0205  -50.9957  -21.6443 C   0  0  0  0  0  0  0  0  0  0  0  0
    0.8953  -51.7448  -21.8090 C   0  0  0  0  0  0  0  0  0  0  0  0
    0.2555  -51.6278  -20.6021 N   0  0  0  0  0  0  0  0  0  0  0  0
    0.9279  -50.8644  -19.7608 N   0  0  0  0  0  0  0  0  0  0  0  0
    2.0379  -50.4338  -20.3509 C   0  0  0  0  0  0  0  0  0  0  0  0
    0.3409  -52.4919  -22.9252 C   0  0  0  0  0  0  0  0  0  0  0  0
    0.3279  -51.9801  -24.1563 N   0  0  0  0  0  0  0  0  0  0  0  0
   -0.2533  -52.8643  -25.0960 C   0  0  0  0  0  0  0  0  0  0  0  0
    0.5501  -53.1411  -26.3466 C   0  0  0  0  0  0  0  0  0  0  0  0
   -0.3939  -52.2626  -27.1117 C   0  0  0  0  0  0  0  0  0  0  0  0
   -1.3640  -52.3122  -25.9554 C   0  0  0  0  0  0  0  0  0  0  0  0
   -0.6020  -54.0868  -24.3563 C   0  0  0  0  0  0  0  0  0  0  0  0
   -1.1089  -55.1612  -24.7474 O   0  0  0  0  0  0  0  0  0  0  0  0
   -0.2134  -53.7740  -22.9887 N   0  0  0  0  0  0  0  0  0  0  0  0
   -0.3635  -54.4786  -22.2373 H   0  0  0  0  0  0  0  0  0  0  0  0
    0.4921  -50.5614  -18.4348 C   0  0  0  0  0  0  0  0  0  0  0  0
    0.8426  -49.3958  -17.7587 C   0  0  0  0  0  0  0  0  0  0  0  0
    0.4243  -49.1559  -16.4749 C   0  0  0  0  0  0  0  0  0  0  0  0
   -0.3568  -50.0660  -15.8185 C   0  0  0  0  0  0  0  0  0  0  0  0
   -0.9265  -49.8227  -14.1792 Cl  0  0  0  0  0  0  0  0  0  0  0  0
   -0.7210  -51.2262  -16.4535 C   0  0  0  0  0  0  0  0  0  0  0  0
   -0.2880  -51.4652  -17.7689 C   0  0  0  0  0  0  0  0  0  0  0  0
   -0.7568  -52.9949  -18.5076 Cl  0  0  0  0  0  0  0  0  0  0  0  0
    2.9940  -49.4445  -19.8963 C   0  0  0  0  0  0  0  0  0  0  0  0
    2.8172  -48.1135  -20.1642 C   0  0  0  0  0  0  0  0  0  0  0  0
    3.7918  -47.1788  -19.8388 C   0  0  0  0  0  0  0  0  0  0  0  0
    4.9750  -47.5372  -19.2349 C   0  0  0  0  0  0  0  0  0  0  0  0
    6.2130  -46.3708  -18.8172 Cl  0  0  0  0  0  0  0  0  0  0  0  0
    5.1656  -48.8748  -18.9600 C   0  0  0  0  0  0  0  0  0  0  0  0
    4.1873  -49.7922  -19.2912 C   0  0  0  0  0  0  0  0  0  0  0  0
    2.8612  -49.6385  -23.5216 C   0  0  0  0  0  0  0  0  0  0  0  0
    3.1098  -50.9207  -22.6716 C   0  0  0  0  0  0  0  0  0  0  0  0
 31 32  1  0  0  0
 32  1  1  0  0  0
  1  2  1  0  0  0
  2  6  1  0  0  0
  6  7  2  0  0  0
  7  8  1  0  0  0
  8  9  1  0  0  0
  9 10  1  0  0  0
 10 11  1  0  0  0
  8 12  1  0  0  0
 12 13  2  0  0  0
 12 14  1  0  0  0
  2  3  2  0  0  0
  3  4  1  0  0  0
  4 16  1  0  0  0
 16 17  2  0  0  0
 17 18  1  0  0  0
 18 19  2  0  0  0
 19 20  1  0  0  0
 19 21  1  0  0  0
 21 22  2  0  0  0
 22 23  1  0  0  0
  4  5  1  0  0  0
  5 24  1  0  0  0
 24 25  2  0  0  0
 25 26  1  0  0  0
 26 27  2  0  0  0
 27 28  1  0  0  0
 27 29  1  0  0  0
 29 30  2  0  0  0
  5  1  2  0  0  0
 30 24  1  0  0  0
 14  6  1  0  0  0
 22 16  1  0  0  0
 11  8  1  0  0  0
 14 15  1  0  0  0
M  END
> <minimizedAffinity>
-7.81016

> <CNNscore>
0.2117937207

> <CNNaffinity>
6.9748778343

> <CNN_VS>
1.4772353172

> <CNNaffinity_variance>
0.4812195897

$$$$
[H]c1c([H])c(-c2c(C([H])([H])C([H])([H])[H])c(C3=NC4(C(=O)N3[H])C([H])([H])C([H])([H])C4([H])[H])nn2-c2c([H])c([H])c(Cl)c([H])c2Cl)c([H])c([H])c1Cl


 32 36  0  0  0  0  0  0  0  0999 V2000
    2.8204  -51.2368  -24.1196 C   0  0  0  0  0  0  0  0  0  0  0  0
    1.8940  -52.1206  -24.5834 C   0  0  0  0  0  0  0  0  0  0  0  0
    1.1165  -52.3735  -23.4829 N   0  0  0  0  0  0  0  0  0  0  0  0
    1.5257  -51.6973  -22.4255 N   0  0  0  0  0  0  0  0  0  0  0  0
    2.5835  -50.9644  -22.7564 C   0  0  0  0  0  0  0  0  0  0  0  0
    1.6262  -52.7027  -25.8876 C   0  0  0  0  0  0  0  0  0  0  0  0
    0.4748  -52.4733  -26.5196 N   0  0  0  0  0  0  0  0  0  0  0  0
    0.4130  -53.1300  -27.7716 C   0  0  0  0  0  0  0  0  0  0  0  0
    0.0304  -52.2780  -28.9607 C   0  0  0  0  0  0  0  0  0  0  0  0
   -1.3239  -52.9215  -28.9483 C   0  0  0  0  0  0  0  0  0  0  0  0
   -0.7956  -53.9962  -28.0282 C   0  0  0  0  0  0  0  0  0  0  0  0
    1.7038  -53.8129  -27.9472 C   0  0  0  0  0  0  0  0  0  0  0  0
    2.1429  -54.4971  -28.8976 O   0  0  0  0  0  0  0  0  0  0  0  0
    2.4131  -53.5128  -26.7120 N   0  0  0  0  0  0  0  0  0  0  0  0
    3.3713  -53.8916  -26.5639 H   0  0  0  0  0  0  0  0  0  0  0  0
    0.8963  -51.7605  -21.1449 C   0  0  0  0  0  0  0  0  0  0  0  0
    0.7923  -50.6698  -20.2857 C   0  0  0  0  0  0  0  0  0  0  0  0
    0.2035  -50.7800  -19.0520 C   0  0  0  0  0  0  0  0  0  0  0  0
   -0.3024  -51.9778  -18.6296 C   0  0  0  0  0  0  0  0  0  0  0  0
   -1.0678  -52.1885  -17.0672 Cl  0  0  0  0  0  0  0  0  0  0  0  0
   -0.2170  -53.0743  -19.4496 C   0  0  0  0  0  0  0  0  0  0  0  0
    0.3884  -52.9536  -20.7122 C   0  0  0  0  0  0  0  0  0  0  0  0
    0.5028  -54.4118  -21.6951 Cl  0  0  0  0  0  0  0  0  0  0  0  0
    3.2653  -49.9400  -21.9914 C   0  0  0  0  0  0  0  0  0  0  0  0
    4.2420  -50.2632  -21.0879 C   0  0  0  0  0  0  0  0  0  0  0  0
    4.8089  -49.2980  -20.2656 C   0  0  0  0  0  0  0  0  0  0  0  0
    4.4234  -47.9781  -20.3151 C   0  0  0  0  0  0  0  0  0  0  0  0
    5.1291  -46.7491  -19.2861 Cl  0  0  0  0  0  0  0  0  0  0  0  0
    3.4402  -47.6395  -21.2206 C   0  0  0  0  0  0  0  0  0  0  0  0
    2.8854  -48.6114  -22.0304 C   0  0  0  0  0  0  0  0  0  0  0  0
    3.7008  -49.2697  -25.3149 C   0  0  0  0  0  0  0  0  0  0  0  0
    3.9772  -50.7578  -24.9442 C   0  0  0  0  0  0  0  0  0  0  0  0
 31 32  1  0  0  0
 32  1  1  0  0  0
  1  2  1  0  0  0
  2  6  1  0  0  0
  6  7  2  0  0  0
  7  8  1  0  0  0
  8  9  1  0  0  0
  9 10  1  0  0  0
 10 11  1  0  0  0
  8 12  1  0  0  0
 12 13  2  0  0  0
 12 14  1  0  0  0
  2  3  2  0  0  0
  3  4  1  0  0  0
  4 16  1  0  0  0
 16 17  2  0  0  0
 17 18  1  0  0  0
 18 19  2  0  0  0
 19 20  1  0  0  0
 19 21  1  0  0  0
 21 22  2  0  0  0
 22 23  1  0  0  0
  4  5  1  0  0  0
  5 24  1  0  0  0
 24 25  2  0  0  0
 25 26  1  0  0  0
 26 27  2  0  0  0
 27 28  1  0  0  0
 27 29  1  0  0  0
 29 30  2  0  0  0
  5  1  2  0  0  0
 30 24  1  0  0  0
 14  6  1  0  0  0
 22 16  1  0  0  0
 11  8  1  0  0  0
 14 15  1  0  0  0
M  END
> <minimizedAffinity>
-6.96951

> <CNNscore>
0.2060347646

> <CNNaffinity>
7.1359586716

> <CNN_VS>
1.4702556133

> <CNNaffinity_variance>
0.3153775632

$$$$
[H]c1c([H])c(-c2c(C([H])([H])C([H])([H])[H])c(C3=NC4(C(=O)N3[H])C([H])([H])C([H])([H])C4([H])[H])nn2-c2c([H])c([H])c(Cl)c([H])c2Cl)c([H])c([H])c1Cl


 32 36  0  0  0  0  0  0  0  0999 V2000
    0.5890  -51.9181  -21.6359 C   0  0  0  0  0  0  0  0  0  0  0  0
    1.5284  -51.7623  -22.6095 C   0  0  0  0  0  0  0  0  0  0  0  0
    2.4628  -50.9486  -22.0229 N   0  0  0  0  0  0  0  0  0  0  0  0
    2.1309  -50.6307  -20.7854 N   0  0  0  0  0  0  0  0  0  0  0  0
    0.9733  -51.2073  -20.4802 C   0  0  0  0  0  0  0  0  0  0  0  0
    1.6796  -52.2944  -23.9532 C   0  0  0  0  0  0  0  0  0  0  0  0
    0.6214  -52.4772  -24.7434 N   0  0  0  0  0  0  0  0  0  0  0  0
    0.9829  -53.0025  -26.0068 C   0  0  0  0  0  0  0  0  0  0  0  0
    0.4498  -52.2709  -27.2178 C   0  0  0  0  0  0  0  0  0  0  0  0
   -0.5309  -53.3865  -27.4230 C   0  0  0  0  0  0  0  0  0  0  0  0
    0.2568  -54.2446  -26.4618 C   0  0  0  0  0  0  0  0  0  0  0  0
    2.4493  -53.1168  -26.0055 C   0  0  0  0  0  0  0  0  0  0  0  0
    3.2392  -53.4982  -26.8969 O   0  0  0  0  0  0  0  0  0  0  0  0
    2.8198  -52.6675  -24.6714 N   0  0  0  0  0  0  0  0  0  0  0  0
    3.8226  -52.6572  -24.3921 H   0  0  0  0  0  0  0  0  0  0  0  0
    2.9242  -49.8028  -19.9337 C   0  0  0  0  0  0  0  0  0  0  0  0
    3.7610  -50.3027  -18.9394 C   0  0  0  0  0  0  0  0  0  0  0  0
    4.4859  -49.4711  -18.1246 C   0  0  0  0  0  0  0  0  0  0  0  0
    4.4044  -48.1141  -18.2699 C   0  0  0  0  0  0  0  0  0  0  0  0
    5.3030  -46.9949  -17.2644 Cl  0  0  0  0  0  0  0  0  0  0  0  0
    3.5893  -47.5860  -19.2388 C   0  0  0  0  0  0  0  0  0  0  0  0
    2.8492  -48.4446  -20.0694 C   0  0  0  0  0  0  0  0  0  0  0  0
    1.7898  -47.6975  -21.2633 Cl  0  0  0  0  0  0  0  0  0  0  0  0
    0.3007  -51.2933  -19.1997 C   0  0  0  0  0  0  0  0  0  0  0  0
    0.3476  -50.2586  -18.3043 C   0  0  0  0  0  0  0  0  0  0  0  0
   -0.1897  -50.3856  -17.0297 C   0  0  0  0  0  0  0  0  0  0  0  0
   -0.7926  -51.5466  -16.6034 C   0  0  0  0  0  0  0  0  0  0  0  0
   -1.4757  -51.7221  -15.0003 Cl  0  0  0  0  0  0  0  0  0  0  0  0
   -0.8460  -52.5965  -17.4956 C   0  0  0  0  0  0  0  0  0  0  0  0
   -0.3058  -52.4548  -18.7591 C   0  0  0  0  0  0  0  0  0  0  0  0
   -0.4096  -54.1674  -21.7646 C   0  0  0  0  0  0  0  0  0  0  0  0
   -0.7058  -52.6404  -21.8580 C   0  0  0  0  0  0  0  0  0  0  0  0
 31 32  1  0  0  0
 32  1  1  0  0  0
  1  2  1  0  0  0
  2  6  1  0  0  0
  6  7  2  0  0  0
  7  8  1  0  0  0
  8  9  1  0  0  0
  9 10  1  0  0  0
 10 11  1  0  0  0
  8 12  1  0  0  0
 12 13  2  0  0  0
 12 14  1  0  0  0
  2  3  2  0  0  0
  3  4  1  0  0  0
  4 16  1  0  0  0
 16 17  2  0  0  0
 17 18  1  0  0  0
 18 19  2  0  0  0
 19 20  1  0  0  0
 19 21  1  0  0  0
 21 22  2  0  0  0
 22 23  1  0  0  0
  4  5  1  0  0  0
  5 24  1  0  0  0
 24 25  2  0  0  0
 25 26  1  0  0  0
 26 27  2  0  0  0
 27 28  1  0  0  0
 27 29  1  0  0  0
 29 30  2  0  0  0
  5  1  2  0  0  0
 30 24  1  0  0  0
 14  6  1  0  0  0
 22 16  1  0  0  0
 11  8  1  0  0  0
 14 15  1  0  0  0
M  END
> <minimizedAffinity>
-8.26690

> <CNNscore>
0.1786577553

> <CNNaffinity>
7.1127228737

> <CNN_VS>
1.2707431316

> <CNNaffinity_variance>
0.0900196582

$$$$
[H]c1c([H])c(-c2c(C([H])([H])C([H])([H])[H])c(C3=NC4(C(=O)N3[H])C([H])([H])C([H])([H])C4([H])[H])nn2-c2c([H])c([H])c(Cl)c([H])c2Cl)c([H])c([H])c1Cl


 32 36  0  0  0  0  0  0  0  0999 V2000
    2.7080  -51.6576  -23.5826 C   0  0  0  0  0  0  0  0  0  0  0  0
    1.5554  -52.3472  -23.8072 C   0  0  0  0  0  0  0  0  0  0  0  0
    0.8649  -52.2046  -22.6315 N   0  0  0  0  0  0  0  0  0  0  0  0
    1.5338  -51.4815  -21.7527 N   0  0  0  0  0  0  0  0  0  0  0  0
    2.6915  -51.1049  -22.2853 C   0  0  0  0  0  0  0  0  0  0  0  0
    1.0182  -53.0584  -24.9549 C   0  0  0  0  0  0  0  0  0  0  0  0
    0.6883  -52.4105  -26.0725 N   0  0  0  0  0  0  0  0  0  0  0  0
    0.1858  -53.2830  -27.0669 C   0  0  0  0  0  0  0  0  0  0  0  0
    0.8196  -53.1801  -28.4358 C   0  0  0  0  0  0  0  0  0  0  0  0
   -0.4137  -52.4789  -28.9214 C   0  0  0  0  0  0  0  0  0  0  0  0
   -1.1464  -52.9248  -27.6783 C   0  0  0  0  0  0  0  0  0  0  0  0
    0.2555  -54.6398  -26.5035 C   0  0  0  0  0  0  0  0  0  0  0  0
   -0.0431  -55.7473  -27.0020 O   0  0  0  0  0  0  0  0  0  0  0  0
    0.7754  -54.4198  -25.1617 N   0  0  0  0  0  0  0  0  0  0  0  0
    0.9166  -55.2313  -24.5252 H   0  0  0  0  0  0  0  0  0  0  0  0
    1.0505  -51.1644  -20.4466 C   0  0  0  0  0  0  0  0  0  0  0  0
    1.1151  -49.8886  -19.8927 C   0  0  0  0  0  0  0  0  0  0  0  0
    0.6636  -49.6322  -18.6233 C   0  0  0  0  0  0  0  0  0  0  0  0
    0.1323  -50.6347  -17.8606 C   0  0  0  0  0  0  0  0  0  0  0  0
   -0.4635  -50.3769  -16.2328 Cl  0  0  0  0  0  0  0  0  0  0  0  0
    0.0534  -51.9046  -18.3736 C   0  0  0  0  0  0  0  0  0  0  0  0
    0.5187  -52.1596  -19.6749 C   0  0  0  0  0  0  0  0  0  0  0  0
    0.4268  -53.8216  -20.2538 Cl  0  0  0  0  0  0  0  0  0  0  0  0
    3.6736  -50.1686  -21.7773 C   0  0  0  0  0  0  0  0  0  0  0  0
    4.5804  -50.5422  -20.8220 C   0  0  0  0  0  0  0  0  0  0  0  0
    5.4397  -49.6161  -20.2447 C   0  0  0  0  0  0  0  0  0  0  0  0
    5.4259  -48.2867  -20.5992 C   0  0  0  0  0  0  0  0  0  0  0  0
    6.5034  -47.1070  -19.8817 Cl  0  0  0  0  0  0  0  0  0  0  0  0
    4.5170  -47.8973  -21.5601 C   0  0  0  0  0  0  0  0  0  0  0  0
    3.6682  -48.8302  -22.1236 C   0  0  0  0  0  0  0  0  0  0  0  0
    4.9702  -52.5494  -23.9831 C   0  0  0  0  0  0  0  0  0  0  0  0
    3.8479  -51.6325  -24.5560 C   0  0  0  0  0  0  0  0  0  0  0  0
 31 32  1  0  0  0
 32  1  1  0  0  0
  1  2  1  0  0  0
  2  6  1  0  0  0
  6  7  2  0  0  0
  7  8  1  0  0  0
  8  9  1  0  0  0
  9 10  1  0  0  0
 10 11  1  0  0  0
  8 12  1  0  0  0
 12 13  2  0  0  0
 12 14  1  0  0  0
  2  3  2  0  0  0
  3  4  1  0  0  0
  4 16  1  0  0  0
 16 17  2  0  0  0
 17 18  1  0  0  0
 18 19  2  0  0  0
 19 20  1  0  0  0
 19 21  1  0  0  0
 21 22  2  0  0  0
 22 23  1  0  0  0
  4  5  1  0  0  0
  5 24  1  0  0  0
 24 25  2  0  0  0
 25 26  1  0  0  0
 26 27  2  0  0  0
 27 28  1  0  0  0
 27 29  1  0  0  0
 29 30  2  0  0  0
  5  1  2  0  0  0
 30 24  1  0  0  0
 14  6  1  0  0  0
 22 16  1  0  0  0
 11  8  1  0  0  0
 14 15  1  0  0  0
M  END
> <minimizedAffinity>
-8.14708

> <CNNscore>
0.1713884175

> <CNNaffinity>
7.1702537537

> <CNN_VS>
1.2288984060

> <CNNaffinity_variance>
0.3265773654

$$$$
[H]c1nc(OC([H])([H])C([H])([H])Oc2nc([H])c(Br)c([H])n2)c(-c2c([H])c([H])c(C([H])([H])[H])c([H])c2[H])c(N([H])S(=O)(=O)c2c([H])c([H])c(Cl)c([H])c2[H])n1


 36 39  0  0  0  0  0  0  0  0999 V2000
    0.3130  -51.5514  -20.5717 C   0  0  0  0  0  0  0  0  0  0  0  0
   -0.6033  -52.1607  -21.3566 C   0  0  0  0  0  0  0  0  0  0  0  0
   -1.4854  -53.1330  -20.7226 N   0  0  0  0  0  0  0  0  0  0  0  0
   -1.4107  -53.4140  -19.4550 C   0  0  0  0  0  0  0  0  0  0  0  0
   -0.5084  -52.8171  -18.6670 N   0  0  0  0  0  0  0  0  0  0  0  0
    0.3039  -51.9629  -19.1579 C   0  0  0  0  0  0  0  0  0  0  0  0
    3.2511  -47.5949  -23.3874 C   0  0  0  0  0  0  0  0  0  0  0  0
    2.6537  -48.5711  -22.4540 C   0  0  0  0  0  0  0  0  0  0  0  0
    3.0062  -49.8646  -22.3716 C   0  0  0  0  0  0  0  0  0  0  0  0
    2.3701  -50.8424  -21.6656 C   0  0  0  0  0  0  0  0  0  0  0  0
    1.2165  -50.5067  -20.9149 C   0  0  0  0  0  0  0  0  0  0  0  0
    0.8517  -49.1693  -20.9545 C   0  0  0  0  0  0  0  0  0  0  0  0
    1.5036  -48.1647  -21.6762 C   0  0  0  0  0  0  0  0  0  0  0  0
   -0.7090  -51.9841  -22.7196 N   0  0  0  0  0  0  0  0  0  0  0  0
   -1.0572  -51.2278  -23.2289 H   0  0  0  0  0  0  0  0  0  0  0  0
   -0.2006  -53.3923  -23.7031 S   0  0  0  0  0  0  0  0  0  0  0  0
    1.3572  -53.3681  -23.4669 O   0  0  0  0  0  0  0  0  0  0  0  0
   -0.6463  -54.6608  -23.0747 O   0  0  0  0  0  0  0  0  0  0  0  0
   -0.4565  -53.2703  -25.3642 C   0  0  0  0  0  0  0  0  0  0  0  0
    0.2228  -54.0324  -26.2317 C   0  0  0  0  0  0  0  0  0  0  0  0
    0.2235  -54.0088  -27.5664 C   0  0  0  0  0  0  0  0  0  0  0  0
   -0.5698  -53.0595  -28.1733 C   0  0  0  0  0  0  0  0  0  0  0  0
   -0.6514  -52.9110  -29.9276 Cl  0  0  0  0  0  0  0  0  0  0  0  0
   -1.3426  -52.1466  -27.4036 C   0  0  0  0  0  0  0  0  0  0  0  0
   -1.2707  -52.2775  -25.9941 C   0  0  0  0  0  0  0  0  0  0  0  0
    1.3109  -51.3339  -18.4883 O   0  0  0  0  0  0  0  0  0  0  0  0
    1.5635  -50.7962  -17.3803 C   0  0  0  0  0  0  0  0  0  0  0  0
    0.9745  -50.3400  -16.1347 C   0  0  0  0  0  0  0  0  0  0  0  0
    0.3453  -49.2878  -15.7522 O   0  0  0  0  0  0  0  0  0  0  0  0
   -0.2813  -48.2482  -15.3808 C   0  0  0  0  0  0  0  0  0  0  0  0
    0.4946  -47.0715  -14.9617 N   0  0  0  0  0  0  0  0  0  0  0  0
   -0.0724  -45.9249  -14.5912 C   0  0  0  0  0  0  0  0  0  0  0  0
   -1.4687  -45.8123  -14.5933 C   0  0  0  0  0  0  0  0  0  0  0  0
   -2.2745  -44.1891  -14.0187 Br  0  0  0  0  0  0  0  0  0  0  0  0
   -2.2177  -46.8972  -14.9657 C   0  0  0  0  0  0  0  0  0  0  0  0
   -1.6112  -47.9615  -15.2976 N   0  0  0  0  0  0  0  0  0  0  0  0
  7  8  1  0  0  0
  8  9  2  0  0  0
  9 10  1  0  0  0
 10 11  2  0  0  0
 11  1  1  0  0  0
  1  2  1  0  0  0
  2 14  1  0  0  0
 14 16  1  0  0  0
 16 17  2  0  0  0
 16 18  2  0  0  0
 16 19  1  0  0  0
 19 20  2  0  0  0
 20 21  1  0  0  0
 21 22  2  0  0  0
 22 23  1  0  0  0
 22 24  1  0  0  0
 24 25  2  0  0  0
  2  3  2  0  0  0
  3  4  1  0  0  0
  4  5  2  0  0  0
  5  6  1  0  0  0
  6 26  1  0  0  0
 26 27  1  0  0  0
 27 28  1  0  0  0
 28 29  1  0  0  0
 29 30  1  0  0  0
 30 31  2  0  0  0
 31 32  1  0  0  0
 32 33  2  0  0  0
 33 34  1  0  0  0
 33 35  1  0  0  0
 35 36  2  0  0  0
 11 12  1  0  0  0
 12 13  2  0  0  0
 13  8  1  0  0  0
  6  1  2  0  0  0
 36 30  1  0  0  0
 25 19  1  0  0  0
 14 15  1  0  0  0
M  END
> <minimizedAffinity>
-7.39781

> <CNNscore>
0.5006682873

> <CNNaffinity>
6.8842034340

> <CNN_VS>
3.4467022419

> <CNNaffinity_variance>
0.1815642715

$$$$
[H]c1nc(OC([H])([H])C([H])([H])Oc2nc([H])c(Br)c([H])n2)c(-c2c([H])c([H])c(C([H])([H])[H])c([H])c2[H])c(N([H])S(=O)(=O)c2c([H])c([H])c(Cl)c([H])c2[H])n1


 36 39  0  0  0  0  0  0  0  0999 V2000
    0.4097  -51.4993  -20.6370 C   0  0  0  0  0  0  0  0  0  0  0  0
   -0.5045  -52.1132  -21.4209 C   0  0  0  0  0  0  0  0  0  0  0  0
   -1.3952  -53.0742  -20.7815 N   0  0  0  0  0  0  0  0  0  0  0  0
   -1.3298  -53.3412  -19.5104 C   0  0  0  0  0  0  0  0  0  0  0  0
   -0.4296  -52.7396  -18.7235 N   0  0  0  0  0  0  0  0  0  0  0  0
    0.3896  -51.8948  -19.2188 C   0  0  0  0  0  0  0  0  0  0  0  0
    3.3559  -47.5607  -23.4693 C   0  0  0  0  0  0  0  0  0  0  0  0
    2.7594  -48.5350  -22.5334 C   0  0  0  0  0  0  0  0  0  0  0  0
    3.0988  -49.8327  -22.4617 C   0  0  0  0  0  0  0  0  0  0  0  0
    2.4608  -50.8071  -21.7526 C   0  0  0  0  0  0  0  0  0  0  0  0
    1.3201  -50.4627  -20.9862 C   0  0  0  0  0  0  0  0  0  0  0  0
    0.9695  -49.1213  -21.0148 C   0  0  0  0  0  0  0  0  0  0  0  0
    1.6233  -48.1201  -21.7395 C   0  0  0  0  0  0  0  0  0  0  0  0
   -0.6007  -51.9515  -22.7864 N   0  0  0  0  0  0  0  0  0  0  0  0
   -0.9209  -51.1904  -23.3069 H   0  0  0  0  0  0  0  0  0  0  0  0
   -0.1399  -53.3899  -23.7494 S   0  0  0  0  0  0  0  0  0  0  0  0
    1.4190  -53.4091  -23.5207 O   0  0  0  0  0  0  0  0  0  0  0  0
   -0.6205  -54.6343  -23.0985 O   0  0  0  0  0  0  0  0  0  0  0  0
   -0.4005  -53.2868  -25.4110 C   0  0  0  0  0  0  0  0  0  0  0  0
    0.3977  -53.9187  -26.2820 C   0  0  0  0  0  0  0  0  0  0  0  0
    0.4040  -53.8764  -27.6162 C   0  0  0  0  0  0  0  0  0  0  0  0
   -0.5263  -53.0571  -28.2182 C   0  0  0  0  0  0  0  0  0  0  0  0
   -0.6182  -52.8988  -29.9711 Cl  0  0  0  0  0  0  0  0  0  0  0  0
   -1.4401  -52.2899  -27.4439 C   0  0  0  0  0  0  0  0  0  0  0  0
   -1.3581  -52.4276  -26.0356 C   0  0  0  0  0  0  0  0  0  0  0  0
    1.3954  -51.2629  -18.5499 O   0  0  0  0  0  0  0  0  0  0  0  0
    1.6796  -50.8064  -17.4135 C   0  0  0  0  0  0  0  0  0  0  0  0
    1.1193  -50.3909  -16.1407 C   0  0  0  0  0  0  0  0  0  0  0  0
    0.0477  -50.6545  -15.4838 O   0  0  0  0  0  0  0  0  0  0  0  0
   -1.0098  -50.9229  -14.8350 C   0  0  0  0  0  0  0  0  0  0  0  0
   -2.2989  -50.4569  -15.3671 N   0  0  0  0  0  0  0  0  0  0  0  0
   -3.4634  -50.7206  -14.7775 C   0  0  0  0  0  0  0  0  0  0  0  0
   -3.4851  -51.4741  -13.5968 C   0  0  0  0  0  0  0  0  0  0  0  0
   -5.1456  -51.8080  -12.7335 Br  0  0  0  0  0  0  0  0  0  0  0  0
   -2.2978  -51.9098  -13.0702 C   0  0  0  0  0  0  0  0  0  0  0  0
   -1.2247  -51.6135  -13.6798 N   0  0  0  0  0  0  0  0  0  0  0  0
  7  8  1  0  0  0
  8  9  2  0  0  0
  9 10  1  0  0  0
 10 11  2  0  0  0
 11  1  1  0  0  0
  1  2  1  0  0  0
  2 14  1  0  0  0
 14 16  1  0  0  0
 16 17  2  0  0  0
 16 18  2  0  0  0
 16 19  1  0  0  0
 19 20  2  0  0  0
 20 21  1  0  0  0
 21 22  2  0  0  0
 22 23  1  0  0  0
 22 24  1  0  0  0
 24 25  2  0  0  0
  2  3  2  0  0  0
  3  4  1  0  0  0
  4  5  2  0  0  0
  5  6  1  0  0  0
  6 26  1  0  0  0
 26 27  1  0  0  0
 27 28  1  0  0  0
 28 29  1  0  0  0
 29 30  1  0  0  0
 30 31  2  0  0  0
 31 32  1  0  0  0
 32 33  2  0  0  0
 33 34  1  0  0  0
 33 35  1  0  0  0
 35 36  2  0  0  0
 11 12  1  0  0  0
 12 13  2  0  0  0
 13  8  1  0  0  0
  6  1  2  0  0  0
 36 30  1  0  0  0
 25 19  1  0  0  0
 14 15  1  0  0  0
M  END
> <minimizedAffinity>
-7.31171

> <CNNscore>
0.4247214496

> <CNNaffinity>
6.8262739182

> <CNN_VS>
2.8992650509

> <CNNaffinity_variance>
0.2138821334

$$$$
[H]c1nc(OC([H])([H])C([H])([H])Oc2nc([H])c(Br)c([H])n2)c(-c2c([H])c([H])c(C([H])([H])[H])c([H])c2[H])c(N([H])S(=O)(=O)c2c([H])c([H])c(Cl)c([H])c2[H])n1


 36 39  0  0  0  0  0  0  0  0999 V2000
    0.2802  -52.6877  -22.9876 C   0  0  0  0  0  0  0  0  0  0  0  0
   -0.1219  -52.8236  -24.2709 C   0  0  0  0  0  0  0  0  0  0  0  0
   -0.9052  -54.0073  -24.6037 N   0  0  0  0  0  0  0  0  0  0  0  0
   -1.2165  -54.9051  -23.7158 C   0  0  0  0  0  0  0  0  0  0  0  0
   -0.8250  -54.7817  -22.4418 N   0  0  0  0  0  0  0  0  0  0  0  0
   -0.1265  -53.7752  -22.0821 C   0  0  0  0  0  0  0  0  0  0  0  0
    2.4567  -49.0158  -19.2466 C   0  0  0  0  0  0  0  0  0  0  0  0
    1.9741  -49.7968  -20.4034 C   0  0  0  0  0  0  0  0  0  0  0  0
    0.7378  -49.7110  -20.9215 C   0  0  0  0  0  0  0  0  0  0  0  0
    0.1862  -50.5304  -21.8616 C   0  0  0  0  0  0  0  0  0  0  0  0
    0.9625  -51.5930  -22.3862 C   0  0  0  0  0  0  0  0  0  0  0  0
    2.2558  -51.6820  -21.8935 C   0  0  0  0  0  0  0  0  0  0  0  0
    2.8241  -50.8419  -20.9311 C   0  0  0  0  0  0  0  0  0  0  0  0
    0.2205  -51.9661  -25.2943 N   0  0  0  0  0  0  0  0  0  0  0  0
   -0.2686  -51.2084  -25.6679 H   0  0  0  0  0  0  0  0  0  0  0  0
    1.7655  -52.3515  -26.1147 S   0  0  0  0  0  0  0  0  0  0  0  0
    1.7835  -53.9217  -25.9839 O   0  0  0  0  0  0  0  0  0  0  0  0
    1.6605  -52.1073  -27.5749 O   0  0  0  0  0  0  0  0  0  0  0  0
    3.1646  -51.7720  -25.3756 C   0  0  0  0  0  0  0  0  0  0  0  0
    4.0739  -52.6063  -24.8542 C   0  0  0  0  0  0  0  0  0  0  0  0
    5.1787  -52.3330  -24.1566 C   0  0  0  0  0  0  0  0  0  0  0  0
    5.4433  -51.0045  -23.9035 C   0  0  0  0  0  0  0  0  0  0  0  0
    6.8611  -50.5059  -22.9830 Cl  0  0  0  0  0  0  0  0  0  0  0  0
    4.5684  -49.9809  -24.3617 C   0  0  0  0  0  0  0  0  0  0  0  0
    3.4331  -50.3940  -25.1028 C   0  0  0  0  0  0  0  0  0  0  0  0
    0.3934  -53.5599  -20.8405 O   0  0  0  0  0  0  0  0  0  0  0  0
    0.0389  -53.4013  -19.6448 C   0  0  0  0  0  0  0  0  0  0  0  0
   -0.1527  -52.4150  -18.5973 C   0  0  0  0  0  0  0  0  0  0  0  0
   -0.9583  -52.2783  -17.6066 O   0  0  0  0  0  0  0  0  0  0  0  0
   -1.7516  -52.1500  -16.6240 C   0  0  0  0  0  0  0  0  0  0  0  0
   -3.1136  -52.6910  -16.7444 N   0  0  0  0  0  0  0  0  0  0  0  0
   -4.0040  -52.6370  -15.7557 C   0  0  0  0  0  0  0  0  0  0  0  0
   -3.6490  -52.0430  -14.5377 C   0  0  0  0  0  0  0  0  0  0  0  0
   -4.9384  -51.9264  -13.1457 Br  0  0  0  0  0  0  0  0  0  0  0  0
   -2.3910  -51.5179  -14.4016 C   0  0  0  0  0  0  0  0  0  0  0  0
   -1.5968  -51.5957  -15.3885 N   0  0  0  0  0  0  0  0  0  0  0  0
  7  8  1  0  0  0
  8  9  2  0  0  0
  9 10  1  0  0  0
 10 11  2  0  0  0
 11  1  1  0  0  0
  1  2  1  0  0  0
  2 14  1  0  0  0
 14 16  1  0  0  0
 16 17  2  0  0  0
 16 18  2  0  0  0
 16 19  1  0  0  0
 19 20  2  0  0  0
 20 21  1  0  0  0
 21 22  2  0  0  0
 22 23  1  0  0  0
 22 24  1  0  0  0
 24 25  2  0  0  0
  2  3  2  0  0  0
  3  4  1  0  0  0
  4  5  2  0  0  0
  5  6  1  0  0  0
  6 26  1  0  0  0
 26 27  1  0  0  0
 27 28  1  0  0  0
 28 29  1  0  0  0
 29 30  1  0  0  0
 30 31  2  0  0  0
 31 32  1  0  0  0
 32 33  2  0  0  0
 33 34  1  0  0  0
 33 35  1  0  0  0
 35 36  2  0  0  0
 11 12  1  0  0  0
 12 13  2  0  0  0
 13  8  1  0  0  0
  6  1  2  0  0  0
 36 30  1  0  0  0
 25 19  1  0  0  0
 14 15  1  0  0  0
M  END
> <minimizedAffinity>
-7.66802

> <CNNscore>
0.3571744859

> <CNNaffinity>
7.1576600075

> <CNN_VS>
2.5565335751

> <CNNaffinity_variance>
0.2214980870

$$$$
[H]c1nc(OC([H])([H])C([H])([H])Oc2nc([H])c(Br)c([H])n2)c(-c2c([H])c([H])c(C([H])([H])[H])c([H])c2[H])c(N([H])S(=O)(=O)c2c([H])c([H])c(Cl)c([H])c2[H])n1


 36 39  0  0  0  0  0  0  0  0999 V2000
    0.3332  -52.7291  -22.9719 C   0  0  0  0  0  0  0  0  0  0  0  0
    0.0776  -52.6740  -24.2980 C   0  0  0  0  0  0  0  0  0  0  0  0
   -0.7156  -53.7547  -24.8710 N   0  0  0  0  0  0  0  0  0  0  0  0
   -1.1696  -54.7384  -24.1515 C   0  0  0  0  0  0  0  0  0  0  0  0
   -0.9241  -54.8041  -22.8374 N   0  0  0  0  0  0  0  0  0  0  0  0
   -0.2264  -53.8969  -22.2711 C   0  0  0  0  0  0  0  0  0  0  0  0
    3.4534  -48.3499  -21.1547 C   0  0  0  0  0  0  0  0  0  0  0  0
    2.6219  -49.5514  -21.3690 C   0  0  0  0  0  0  0  0  0  0  0  0
    3.1042  -50.7831  -21.6032 C   0  0  0  0  0  0  0  0  0  0  0  0
    2.3921  -51.8813  -21.9855 C   0  0  0  0  0  0  0  0  0  0  0  0
    0.9907  -51.7648  -22.1575 C   0  0  0  0  0  0  0  0  0  0  0  0
    0.4623  -50.5114  -21.8872 C   0  0  0  0  0  0  0  0  0  0  0  0
    1.1902  -49.3844  -21.4932 C   0  0  0  0  0  0  0  0  0  0  0  0
    0.5765  -51.7147  -25.1529 N   0  0  0  0  0  0  0  0  0  0  0  0
    0.2224  -50.8348  -25.3835 H   0  0  0  0  0  0  0  0  0  0  0  0
    2.0617  -52.1902  -26.0342 S   0  0  0  0  0  0  0  0  0  0  0  0
    2.0189  -53.7555  -25.8582 O   0  0  0  0  0  0  0  0  0  0  0  0
    1.8961  -51.9816  -27.4943 O   0  0  0  0  0  0  0  0  0  0  0  0
    3.5187  -51.6530  -25.3798 C   0  0  0  0  0  0  0  0  0  0  0  0
    4.3999  -52.5087  -24.8451 C   0  0  0  0  0  0  0  0  0  0  0  0
    5.5446  -52.2621  -24.2042 C   0  0  0  0  0  0  0  0  0  0  0  0
    5.8924  -50.9392  -24.0364 C   0  0  0  0  0  0  0  0  0  0  0  0
    7.3707  -50.4739  -23.1972 Cl  0  0  0  0  0  0  0  0  0  0  0  0
    5.0585  -49.8933  -24.5200 C   0  0  0  0  0  0  0  0  0  0  0  0
    3.8739  -50.2800  -25.1953 C   0  0  0  0  0  0  0  0  0  0  0  0
    0.1546  -53.8753  -20.9625 O   0  0  0  0  0  0  0  0  0  0  0  0
   -0.2827  -53.5843  -19.8202 C   0  0  0  0  0  0  0  0  0  0  0  0
   -0.1861  -52.6260  -18.7345 C   0  0  0  0  0  0  0  0  0  0  0  0
    0.6247  -51.6817  -18.4179 O   0  0  0  0  0  0  0  0  0  0  0  0
    1.4254  -50.7453  -18.1124 C   0  0  0  0  0  0  0  0  0  0  0  0
    2.8619  -51.0476  -18.0282 N   0  0  0  0  0  0  0  0  0  0  0  0
    3.7809  -50.1246  -17.7511 C   0  0  0  0  0  0  0  0  0  0  0  0
    3.3841  -48.8001  -17.5262 C   0  0  0  0  0  0  0  0  0  0  0  0
    4.6947  -47.4957  -17.0847 Br  0  0  0  0  0  0  0  0  0  0  0  0
    2.0505  -48.4919  -17.5844 C   0  0  0  0  0  0  0  0  0  0  0  0
    1.2287  -49.4235  -17.8441 N   0  0  0  0  0  0  0  0  0  0  0  0
  7  8  1  0  0  0
  8  9  2  0  0  0
  9 10  1  0  0  0
 10 11  2  0  0  0
 11  1  1  0  0  0
  1  2  1  0  0  0
  2 14  1  0  0  0
 14 16  1  0  0  0
 16 17  2  0  0  0
 16 18  2  0  0  0
 16 19  1  0  0  0
 19 20  2  0  0  0
 20 21  1  0  0  0
 21 22  2  0  0  0
 22 23  1  0  0  0
 22 24  1  0  0  0
 24 25  2  0  0  0
  2  3  2  0  0  0
  3  4  1  0  0  0
  4  5  2  0  0  0
  5  6  1  0  0  0
  6 26  1  0  0  0
 26 27  1  0  0  0
 27 28  1  0  0  0
 28 29  1  0  0  0
 29 30  1  0  0  0
 30 31  2  0  0  0
 31 32  1  0  0  0
 32 33  2  0  0  0
 33 34  1  0  0  0
 33 35  1  0  0  0
 35 36  2  0  0  0
 11 12  1  0  0  0
 12 13  2  0  0  0
 13  8  1  0  0  0
  6  1  2  0  0  0
 36 30  1  0  0  0
 25 19  1  0  0  0
 14 15  1  0  0  0
M  END
> <minimizedAffinity>
-7.07168

> <CNNscore>
0.2521206141

> <CNNaffinity>
7.1256799698

> <CNN_VS>
1.7965308428

> <CNNaffinity_variance>
0.1940916777

$$$$
[H]c1nc(OC([H])([H])C([H])([H])Oc2nc([H])c(Br)c([H])n2)c(-c2c([H])c([H])c(C([H])([H])[H])c([H])c2[H])c(N([H])S(=O)(=O)c2c([H])c([H])c(Cl)c([H])c2[H])n1


 36 39  0  0  0  0  0  0  0  0999 V2000
    1.6028  -52.0322  -24.2419 C   0  0  0  0  0  0  0  0  0  0  0  0
    2.7198  -51.2812  -24.3658 C   0  0  0  0  0  0  0  0  0  0  0  0
    3.4673  -50.9898  -23.1485 N   0  0  0  0  0  0  0  0  0  0  0  0
    3.0922  -51.4276  -21.9828 C   0  0  0  0  0  0  0  0  0  0  0  0
    1.9886  -52.1726  -21.8469 N   0  0  0  0  0  0  0  0  0  0  0  0
    1.2793  -52.4573  -22.8698 C   0  0  0  0  0  0  0  0  0  0  0  0
   -0.9730  -52.9512  -29.2154 C   0  0  0  0  0  0  0  0  0  0  0  0
   -0.4871  -52.8775  -27.8227 C   0  0  0  0  0  0  0  0  0  0  0  0
   -0.8720  -51.9538  -26.9266 C   0  0  0  0  0  0  0  0  0  0  0  0
   -0.3259  -51.7292  -25.6975 C   0  0  0  0  0  0  0  0  0  0  0  0
    0.7575  -52.5357  -25.2702 C   0  0  0  0  0  0  0  0  0  0  0  0
    1.1514  -53.5211  -26.1630 C   0  0  0  0  0  0  0  0  0  0  0  0
    0.5917  -53.7546  -27.4229 C   0  0  0  0  0  0  0  0  0  0  0  0
    3.1548  -50.7121  -25.5435 N   0  0  0  0  0  0  0  0  0  0  0  0
    3.1665  -51.0760  -26.4491 H   0  0  0  0  0  0  0  0  0  0  0  0
    3.8816  -49.0842  -25.3698 S   0  0  0  0  0  0  0  0  0  0  0  0
    3.0342  -48.5107  -24.1716 O   0  0  0  0  0  0  0  0  0  0  0  0
    5.2609  -49.1792  -24.8300 O   0  0  0  0  0  0  0  0  0  0  0  0
    3.6777  -48.0360  -26.6735 C   0  0  0  0  0  0  0  0  0  0  0  0
    2.8404  -46.9925  -26.6041 C   0  0  0  0  0  0  0  0  0  0  0  0
    2.4826  -46.1238  -27.5524 C   0  0  0  0  0  0  0  0  0  0  0  0
    3.0252  -46.3103  -28.8053 C   0  0  0  0  0  0  0  0  0  0  0  0
    2.6270  -45.2436  -30.1505 Cl  0  0  0  0  0  0  0  0  0  0  0  0
    3.9170  -47.3870  -29.0669 C   0  0  0  0  0  0  0  0  0  0  0  0
    4.2315  -48.2364  -27.9767 C   0  0  0  0  0  0  0  0  0  0  0  0
    0.1025  -53.1453  -22.8659 O   0  0  0  0  0  0  0  0  0  0  0  0
   -0.7255  -53.6642  -22.0748 C   0  0  0  0  0  0  0  0  0  0  0  0
   -1.0415  -53.8690  -20.6731 C   0  0  0  0  0  0  0  0  0  0  0  0
   -0.8659  -53.2026  -19.5894 O   0  0  0  0  0  0  0  0  0  0  0  0
   -0.6845  -52.5462  -18.5181 C   0  0  0  0  0  0  0  0  0  0  0  0
    0.1725  -51.3522  -18.5614 N   0  0  0  0  0  0  0  0  0  0  0  0
    0.3922  -50.5799  -17.4990 C   0  0  0  0  0  0  0  0  0  0  0  0
   -0.2098  -50.9004  -16.2754 C   0  0  0  0  0  0  0  0  0  0  0  0
    0.1444  -49.8218  -14.7505 Br  0  0  0  0  0  0  0  0  0  0  0  0
   -1.0023  -52.0155  -16.2020 C   0  0  0  0  0  0  0  0  0  0  0  0
   -1.1604  -52.7112  -17.2516 N   0  0  0  0  0  0  0  0  0  0  0  0
  7  8  1  0  0  0
  8  9  2  0  0  0
  9 10  1  0  0  0
 10 11  2  0  0  0
 11  1  1  0  0  0
  1  2  1  0  0  0
  2 14  1  0  0  0
 14 16  1  0  0  0
 16 17  2  0  0  0
 16 18  2  0  0  0
 16 19  1  0  0  0
 19 20  2  0  0  0
 20 21  1  0  0  0
 21 22  2  0  0  0
 22 23  1  0  0  0
 22 24  1  0  0  0
 24 25  2  0  0  0
  2  3  2  0  0  0
  3  4  1  0  0  0
  4  5  2  0  0  0
  5  6  1  0  0  0
  6 26  1  0  0  0
 26 27  1  0  0  0
 27 28  1  0  0  0
 28 29  1  0  0  0
 29 30  1  0  0  0
 30 31  2  0  0  0
 31 32  1  0  0  0
 32 33  2  0  0  0
 33 34  1  0  0  0
 33 35  1  0  0  0
 35 36  2  0  0  0
 11 12  1  0  0  0
 12 13  2  0  0  0
 13  8  1  0  0  0
  6  1  2  0  0  0
 36 30  1  0  0  0
 25 19  1  0  0  0
 14 15  1  0  0  0
M  END
> <minimizedAffinity>
-7.87544

> <CNNscore>
0.2168289721

> <CNNaffinity>
6.5997185707

> <CNN_VS>
1.4310102463

> <CNNaffinity_variance>
0.4695058763

$$$$
[H]c1nc(OC([H])([H])C([H])([H])Oc2nc([H])c(Br)c([H])n2)c(-c2c([H])c([H])c(C([H])([H])[H])c([H])c2[H])c(N([H])S(=O)(=O)c2c([H])c([H])c(Cl)c([H])c2[H])n1


 36 39  0  0  0  0  0  0  0  0999 V2000
    1.0413  -52.4033  -23.6879 C   0  0  0  0  0  0  0  0  0  0  0  0
   -0.1507  -52.9183  -23.3124 C   0  0  0  0  0  0  0  0  0  0  0  0
   -0.7394  -53.9368  -24.1735 N   0  0  0  0  0  0  0  0  0  0  0  0
   -0.1559  -54.3477  -25.2606 C   0  0  0  0  0  0  0  0  0  0  0  0
    1.0247  -53.8462  -25.6430 N   0  0  0  0  0  0  0  0  0  0  0  0
    1.5929  -52.9427  -24.9421 C   0  0  0  0  0  0  0  0  0  0  0  0
    3.1749  -48.8791  -19.7838 C   0  0  0  0  0  0  0  0  0  0  0  0
    2.8165  -49.7048  -20.9546 C   0  0  0  0  0  0  0  0  0  0  0  0
    1.9357  -49.3452  -21.9029 C   0  0  0  0  0  0  0  0  0  0  0  0
    1.4351  -50.1343  -22.8958 C   0  0  0  0  0  0  0  0  0  0  0  0
    1.8665  -51.4807  -22.9855 C   0  0  0  0  0  0  0  0  0  0  0  0
    2.8036  -51.8674  -22.0392 C   0  0  0  0  0  0  0  0  0  0  0  0
    3.3197  -51.0595  -21.0214 C   0  0  0  0  0  0  0  0  0  0  0  0
   -0.8784  -52.4947  -22.2211 N   0  0  0  0  0  0  0  0  0  0  0  0
   -1.4680  -51.7232  -22.1214 H   0  0  0  0  0  0  0  0  0  0  0  0
   -0.6430  -53.4673  -20.7354 S   0  0  0  0  0  0  0  0  0  0  0  0
   -1.9804  -54.3004  -20.7150 O   0  0  0  0  0  0  0  0  0  0  0  0
    0.4187  -54.4848  -20.9358 O   0  0  0  0  0  0  0  0  0  0  0  0
   -0.5673  -52.6075  -19.2881 C   0  0  0  0  0  0  0  0  0  0  0  0
    0.2228  -51.5336  -19.1562 C   0  0  0  0  0  0  0  0  0  0  0  0
    0.4818  -50.7951  -18.0748 C   0  0  0  0  0  0  0  0  0  0  0  0
   -0.1259  -51.1778  -16.8986 C   0  0  0  0  0  0  0  0  0  0  0  0
    0.1402  -50.2980  -15.3948 Cl  0  0  0  0  0  0  0  0  0  0  0  0
   -0.9804  -52.3138  -16.8488 C   0  0  0  0  0  0  0  0  0  0  0  0
   -1.1885  -53.0114  -18.0649 C   0  0  0  0  0  0  0  0  0  0  0  0
    2.7555  -52.3002  -25.2482 O   0  0  0  0  0  0  0  0  0  0  0  0
    3.2190  -51.4376  -26.0366 C   0  0  0  0  0  0  0  0  0  0  0  0
    3.3216  -50.0121  -26.2896 C   0  0  0  0  0  0  0  0  0  0  0  0
    3.4945  -48.9652  -25.5661 O   0  0  0  0  0  0  0  0  0  0  0  0
    3.6718  -47.9284  -24.8554 C   0  0  0  0  0  0  0  0  0  0  0  0
    4.6559  -47.9835  -23.7644 N   0  0  0  0  0  0  0  0  0  0  0  0
    4.9372  -46.9376  -22.9896 C   0  0  0  0  0  0  0  0  0  0  0  0
    4.2781  -45.7205  -23.2058 C   0  0  0  0  0  0  0  0  0  0  0  0
    4.6486  -44.2438  -22.0672 Br  0  0  0  0  0  0  0  0  0  0  0  0
    3.3457  -45.6438  -24.2065 C   0  0  0  0  0  0  0  0  0  0  0  0
    3.1208  -46.6826  -24.9000 N   0  0  0  0  0  0  0  0  0  0  0  0
  7  8  1  0  0  0
  8  9  2  0  0  0
  9 10  1  0  0  0
 10 11  2  0  0  0
 11  1  1  0  0  0
  1  2  1  0  0  0
  2 14  1  0  0  0
 14 16  1  0  0  0
 16 17  2  0  0  0
 16 18  2  0  0  0
 16 19  1  0  0  0
 19 20  2  0  0  0
 20 21  1  0  0  0
 21 22  2  0  0  0
 22 23  1  0  0  0
 22 24  1  0  0  0
 24 25  2  0  0  0
  2  3  2  0  0  0
  3  4  1  0  0  0
  4  5  2  0  0  0
  5  6  1  0  0  0
  6 26  1  0  0  0
 26 27  1  0  0  0
 27 28  1  0  0  0
 28 29  1  0  0  0
 29 30  1  0  0  0
 30 31  2  0  0  0
 31 32  1  0  0  0
 32 33  2  0  0  0
 33 34  1  0  0  0
 33 35  1  0  0  0
 35 36  2  0  0  0
 11 12  1  0  0  0
 12 13  2  0  0  0
 13  8  1  0  0  0
  6  1  2  0  0  0
 36 30  1  0  0  0
 25 19  1  0  0  0
 14 15  1  0  0  0
M  END
> <minimizedAffinity>
-7.06432

> <CNNscore>
0.2013254911

> <CNNaffinity>
7.0093793869

> <CNN_VS>
1.4111667871

> <CNNaffinity_variance>
0.1390575022

$$$$
[H]c1nc(OC([H])([H])C([H])([H])Oc2nc([H])c(Br)c([H])n2)c(-c2c([H])c([H])c(C([H])([H])[H])c([H])c2[H])c(N([H])S(=O)(=O)c2c([H])c([H])c(Cl)c([H])c2[H])n1


 36 39  0  0  0  0  0  0  0  0999 V2000
    2.2084  -50.9445  -22.2152 C   0  0  0  0  0  0  0  0  0  0  0  0
    1.4294  -51.8045  -21.5220 C   0  0  0  0  0  0  0  0  0  0  0  0
    0.9822  -51.3837  -20.1997 N   0  0  0  0  0  0  0  0  0  0  0  0
    1.3069  -50.2312  -19.6921 C   0  0  0  0  0  0  0  0  0  0  0  0
    2.0770  -49.3705  -20.3686 N   0  0  0  0  0  0  0  0  0  0  0  0
    2.5137  -49.6783  -21.5283 C   0  0  0  0  0  0  0  0  0  0  0  0
    3.0113  -52.5790  -27.5909 C   0  0  0  0  0  0  0  0  0  0  0  0
    3.0214  -52.0063  -26.2297 C   0  0  0  0  0  0  0  0  0  0  0  0
    3.6147  -52.5731  -25.1662 C   0  0  0  0  0  0  0  0  0  0  0  0
    3.5014  -52.1862  -23.8636 C   0  0  0  0  0  0  0  0  0  0  0  0
    2.6918  -51.0672  -23.5481 C   0  0  0  0  0  0  0  0  0  0  0  0
    2.0958  -50.4417  -24.6330 C   0  0  0  0  0  0  0  0  0  0  0  0
    2.2122  -50.8355  -25.9696 C   0  0  0  0  0  0  0  0  0  0  0  0
    1.0952  -53.0734  -21.9441 N   0  0  0  0  0  0  0  0  0  0  0  0
    1.6025  -53.9057  -21.8921 H   0  0  0  0  0  0  0  0  0  0  0  0
   -0.4803  -53.1960  -22.7876 S   0  0  0  0  0  0  0  0  0  0  0  0
   -0.9369  -54.6387  -22.3482 O   0  0  0  0  0  0  0  0  0  0  0  0
   -1.4802  -52.2912  -22.1679 O   0  0  0  0  0  0  0  0  0  0  0  0
   -0.4251  -53.1802  -24.4718 C   0  0  0  0  0  0  0  0  0  0  0  0
   -0.9906  -52.1922  -25.1782 C   0  0  0  0  0  0  0  0  0  0  0  0
   -1.1287  -52.0617  -26.4995 C   0  0  0  0  0  0  0  0  0  0  0  0
   -0.6420  -53.0869  -27.2812 C   0  0  0  0  0  0  0  0  0  0  0  0
   -0.7710  -53.0474  -29.0385 Cl  0  0  0  0  0  0  0  0  0  0  0  0
   -0.0308  -54.2304  -26.6963 C   0  0  0  0  0  0  0  0  0  0  0  0
    0.0693  -54.2494  -25.2826 C   0  0  0  0  0  0  0  0  0  0  0  0
    3.3568  -48.9299  -22.2946 O   0  0  0  0  0  0  0  0  0  0  0  0
    3.5282  -47.7509  -22.6960 C   0  0  0  0  0  0  0  0  0  0  0  0
    3.1593  -46.7946  -23.7237 C   0  0  0  0  0  0  0  0  0  0  0  0
    3.1685  -46.7834  -25.0078 O   0  0  0  0  0  0  0  0  0  0  0  0
    3.1694  -46.7728  -26.2771 C   0  0  0  0  0  0  0  0  0  0  0  0
    2.3266  -45.7892  -26.9730 N   0  0  0  0  0  0  0  0  0  0  0  0
    2.2892  -45.6774  -28.2994 C   0  0  0  0  0  0  0  0  0  0  0  0
    3.0799  -46.5242  -29.0868 C   0  0  0  0  0  0  0  0  0  0  0  0
    2.9876  -46.3924  -30.9811 Br  0  0  0  0  0  0  0  0  0  0  0  0
    3.8647  -47.4600  -28.4661 C   0  0  0  0  0  0  0  0  0  0  0  0
    3.8439  -47.5171  -27.1984 N   0  0  0  0  0  0  0  0  0  0  0  0
  7  8  1  0  0  0
  8  9  2  0  0  0
  9 10  1  0  0  0
 10 11  2  0  0  0
 11  1  1  0  0  0
  1  2  1  0  0  0
  2 14  1  0  0  0
 14 16  1  0  0  0
 16 17  2  0  0  0
 16 18  2  0  0  0
 16 19  1  0  0  0
 19 20  2  0  0  0
 20 21  1  0  0  0
 21 22  2  0  0  0
 22 23  1  0  0  0
 22 24  1  0  0  0
 24 25  2  0  0  0
  2  3  2  0  0  0
  3  4  1  0  0  0
  4  5  2  0  0  0
  5  6  1  0  0  0
  6 26  1  0  0  0
 26 27  1  0  0  0
 27 28  1  0  0  0
 28 29  1  0  0  0
 29 30  1  0  0  0
 30 31  2  0  0  0
 31 32  1  0  0  0
 32 33  2  0  0  0
 33 34  1  0  0  0
 33 35  1  0  0  0
 35 36  2  0  0  0
 11 12  1  0  0  0
 12 13  2  0  0  0
 13  8  1  0  0  0
  6  1  2  0  0  0
 36 30  1  0  0  0
 25 19  1  0  0  0
 14 15  1  0  0  0
M  END
> <minimizedAffinity>
-7.68578

> <CNNscore>
0.1886986047

> <CNNaffinity>
6.7412176132

> <CNN_VS>
1.2720583677

> <CNNaffinity_variance>
0.6329573393

$$$$
[H]c1nc(OC([H])([H])C([H])([H])Oc2nc([H])c(Br)c([H])n2)c(-c2c([H])c([H])c(C([H])([H])[H])c([H])c2[H])c(N([H])S(=O)(=O)c2c([H])c([H])c(Cl)c([H])c2[H])n1


 36 39  0  0  0  0  0  0  0  0999 V2000
    1.1739  -52.3195  -23.6058 C   0  0  0  0  0  0  0  0  0  0  0  0
   -0.0394  -52.8329  -23.3032 C   0  0  0  0  0  0  0  0  0  0  0  0
   -0.5977  -53.8153  -24.2245 N   0  0  0  0  0  0  0  0  0  0  0  0
    0.0316  -54.1965  -25.2969 C   0  0  0  0  0  0  0  0  0  0  0  0
    1.2336  -53.6962  -25.6072 N   0  0  0  0  0  0  0  0  0  0  0  0
    1.7777  -52.8232  -24.8507 C   0  0  0  0  0  0  0  0  0  0  0  0
    3.1217  -48.8878  -19.5261 C   0  0  0  0  0  0  0  0  0  0  0  0
    2.8266  -49.6966  -20.7260 C   0  0  0  0  0  0  0  0  0  0  0  0
    2.0380  -49.3017  -21.7392 C   0  0  0  0  0  0  0  0  0  0  0  0
    1.5885  -50.0690  -22.7729 C   0  0  0  0  0  0  0  0  0  0  0  0
    1.9748  -51.4306  -22.8353 C   0  0  0  0  0  0  0  0  0  0  0  0
    2.8186  -51.8547  -21.8197 C   0  0  0  0  0  0  0  0  0  0  0  0
    3.2823  -51.0693  -20.7599 C   0  0  0  0  0  0  0  0  0  0  0  0
   -0.8127  -52.4375  -22.2329 N   0  0  0  0  0  0  0  0  0  0  0  0
   -1.3990  -51.6633  -22.1348 H   0  0  0  0  0  0  0  0  0  0  0  0
   -0.6554  -53.4610  -20.7712 S   0  0  0  0  0  0  0  0  0  0  0  0
   -2.0023  -54.2761  -20.8373 O   0  0  0  0  0  0  0  0  0  0  0  0
    0.4019  -54.4857  -20.9583 O   0  0  0  0  0  0  0  0  0  0  0  0
   -0.6337  -52.6497  -19.2944 C   0  0  0  0  0  0  0  0  0  0  0  0
    0.1938  -51.6185  -19.0780 C   0  0  0  0  0  0  0  0  0  0  0  0
    0.4161  -50.9258  -17.9588 C   0  0  0  0  0  0  0  0  0  0  0  0
   -0.2820  -51.3150  -16.8361 C   0  0  0  0  0  0  0  0  0  0  0  0
   -0.0732  -50.4945  -15.2903 Cl  0  0  0  0  0  0  0  0  0  0  0  0
   -1.1880  -52.4107  -16.8773 C   0  0  0  0  0  0  0  0  0  0  0  0
   -1.3492  -53.0608  -18.1264 C   0  0  0  0  0  0  0  0  0  0  0  0
    2.9597  -52.1845  -25.0810 O   0  0  0  0  0  0  0  0  0  0  0  0
    3.4590  -51.2755  -25.7917 C   0  0  0  0  0  0  0  0  0  0  0  0
    3.4842  -49.8421  -26.0187 C   0  0  0  0  0  0  0  0  0  0  0  0
    3.7016  -49.0802  -27.0294 O   0  0  0  0  0  0  0  0  0  0  0  0
    3.9123  -48.3322  -28.0331 C   0  0  0  0  0  0  0  0  0  0  0  0
    4.7574  -48.8403  -29.1238 N   0  0  0  0  0  0  0  0  0  0  0  0
    5.0052  -48.1445  -30.2319 C   0  0  0  0  0  0  0  0  0  0  0  0
    4.4461  -46.8694  -30.3866 C   0  0  0  0  0  0  0  0  0  0  0  0
    4.8408  -45.8610  -31.9491 Br  0  0  0  0  0  0  0  0  0  0  0  0
    3.6657  -46.3645  -29.3802 C   0  0  0  0  0  0  0  0  0  0  0  0
    3.4794  -47.0787  -28.3477 N   0  0  0  0  0  0  0  0  0  0  0  0
  7  8  1  0  0  0
  8  9  2  0  0  0
  9 10  1  0  0  0
 10 11  2  0  0  0
 11  1  1  0  0  0
  1  2  1  0  0  0
  2 14  1  0  0  0
 14 16  1  0  0  0
 16 17  2  0  0  0
 16 18  2  0  0  0
 16 19  1  0  0  0
 19 20  2  0  0  0
 20 21  1  0  0  0
 21 22  2  0  0  0
 22 23  1  0  0  0
 22 24  1  0  0  0
 24 25  2  0  0  0
  2  3  2  0  0  0
  3  4  1  0  0  0
  4  5  2  0  0  0
  5  6  1  0  0  0
  6 26  1  0  0  0
 26 27  1  0  0  0
 27 28  1  0  0  0
 28 29  1  0  0  0
 29 30  1  0  0  0
 30 31  2  0  0  0
 31 32  1  0  0  0
 32 33  2  0  0  0
 33 34  1  0  0  0
 33 35  1  0  0  0
 35 36  2  0  0  0
 11 12  1  0  0  0
 12 13  2  0  0  0
 13  8  1  0  0  0
  6  1  2  0  0  0
 36 30  1  0  0  0
 25 19  1  0  0  0
 14 15  1  0  0  0
M  END
> <minimizedAffinity>
-7.43873

> <CNNscore>
0.1878335029

> <CNNaffinity>
6.6849327087

> <CNN_VS>
1.2556543350

> <CNNaffinity_variance>
0.2011528909

$$$$
[H]c1nc(OC([H])([H])C([H])([H])Oc2nc([H])c(Br)c([H])n2)c(-c2c([H])c([H])c(C([H])([H])[H])c([H])c2[H])c(N([H])S(=O)(=O)c2c([H])c([H])c(Cl)c([H])c2[H])n1


 36 39  0  0  0  0  0  0  0  0999 V2000
    0.7824  -51.5579  -18.9048 C   0  0  0  0  0  0  0  0  0  0  0  0
    0.1149  -52.6953  -19.2010 C   0  0  0  0  0  0  0  0  0  0  0  0
   -0.9232  -53.1223  -18.2707 N   0  0  0  0  0  0  0  0  0  0  0  0
   -1.2114  -52.4486  -17.1963 C   0  0  0  0  0  0  0  0  0  0  0  0
   -0.5583  -51.3205  -16.8922 N   0  0  0  0  0  0  0  0  0  0  0  0
    0.3709  -50.8936  -17.6568 C   0  0  0  0  0  0  0  0  0  0  0  0
    4.4341  -50.0932  -22.9956 C   0  0  0  0  0  0  0  0  0  0  0  0
    3.5907  -50.2706  -21.7963 C   0  0  0  0  0  0  0  0  0  0  0  0
    3.8885  -51.0781  -20.7650 C   0  0  0  0  0  0  0  0  0  0  0  0
    3.0698  -51.4170  -19.7286 C   0  0  0  0  0  0  0  0  0  0  0  0
    1.7603  -50.8783  -19.6841 C   0  0  0  0  0  0  0  0  0  0  0  0
    1.4397  -50.0127  -20.7191 C   0  0  0  0  0  0  0  0  0  0  0  0
    2.2782  -49.6623  -21.7818 C   0  0  0  0  0  0  0  0  0  0  0  0
    0.3987  -53.5138  -20.2732 N   0  0  0  0  0  0  0  0  0  0  0  0
    1.1364  -54.1388  -20.4072 H   0  0  0  0  0  0  0  0  0  0  0  0
   -0.7157  -53.3448  -21.6654 S   0  0  0  0  0  0  0  0  0  0  0  0
   -1.4454  -54.7409  -21.6284 O   0  0  0  0  0  0  0  0  0  0  0  0
   -1.7878  -52.3636  -21.3645 O   0  0  0  0  0  0  0  0  0  0  0  0
    0.0054  -53.1975  -23.1813 C   0  0  0  0  0  0  0  0  0  0  0  0
   -0.5456  -53.7478  -24.2715 C   0  0  0  0  0  0  0  0  0  0  0  0
   -0.0775  -53.8162  -25.5197 C   0  0  0  0  0  0  0  0  0  0  0  0
    1.1627  -53.2617  -25.7514 C   0  0  0  0  0  0  0  0  0  0  0  0
    1.9031  -53.2947  -27.3504 Cl  0  0  0  0  0  0  0  0  0  0  0  0
    1.9043  -52.6551  -24.7001 C   0  0  0  0  0  0  0  0  0  0  0  0
    1.2974  -52.6325  -23.4195 C   0  0  0  0  0  0  0  0  0  0  0  0
    1.1580  -49.8032  -17.4340 O   0  0  0  0  0  0  0  0  0  0  0  0
    1.8250  -49.2466  -16.5251 C   0  0  0  0  0  0  0  0  0  0  0  0
    1.8013  -48.1910  -15.5293 C   0  0  0  0  0  0  0  0  0  0  0  0
    0.9233  -47.3569  -15.1018 O   0  0  0  0  0  0  0  0  0  0  0  0
    0.0545  -46.5369  -14.6727 C   0  0  0  0  0  0  0  0  0  0  0  0
   -0.6195  -46.8290  -13.3989 N   0  0  0  0  0  0  0  0  0  0  0  0
   -1.5169  -46.0120  -12.8507 C   0  0  0  0  0  0  0  0  0  0  0  0
   -1.8488  -44.8153  -13.4990 C   0  0  0  0  0  0  0  0  0  0  0  0
   -3.1647  -43.6749  -12.7361 Br  0  0  0  0  0  0  0  0  0  0  0  0
   -1.2468  -44.5236  -14.6945 C   0  0  0  0  0  0  0  0  0  0  0  0
   -0.4079  -45.3525  -15.1635 N   0  0  0  0  0  0  0  0  0  0  0  0
  7  8  1  0  0  0
  8  9  2  0  0  0
  9 10  1  0  0  0
 10 11  2  0  0  0
 11  1  1  0  0  0
  1  2  1  0  0  0
  2 14  1  0  0  0
 14 16  1  0  0  0
 16 17  2  0  0  0
 16 18  2  0  0  0
 16 19  1  0  0  0
 19 20  2  0  0  0
 20 21  1  0  0  0
 21 22  2  0  0  0
 22 23  1  0  0  0
 22 24  1  0  0  0
 24 25  2  0  0  0
  2  3  2  0  0  0
  3  4  1  0  0  0
  4  5  2  0  0  0
  5  6  1  0  0  0
  6 26  1  0  0  0
 26 27  1  0  0  0
 27 28  1  0  0  0
 28 29  1  0  0  0
 29 30  1  0  0  0
 30 31  2  0  0  0
 31 32  1  0  0  0
 32 33  2  0  0  0
 33 34  1  0  0  0
 33 35  1  0  0  0
 35 36  2  0  0  0
 11 12  1  0  0  0
 12 13  2  0  0  0
 13  8  1  0  0  0
  6  1  2  0  0  0
 36 30  1  0  0  0
 25 19  1  0  0  0
 14 15  1  0  0  0
M  END
> <minimizedAffinity>
-6.52470

> <CNNscore>
0.1736209840

> <CNNaffinity>
6.3222475052

> <CNN_VS>
1.0976748466

> <CNNaffinity_variance>
0.2498497069

$$$$
[H]c1nc(N([H])[C@@]([H])(c2c([H])c([H])c(Cl)c([H])c2[H])C([H])([H])N([H])C([H])([H])[H])c2nc([H])c([H])c(C(=O)N([H])[H])c2n1


 29 31  0  0  0  0  0  0  0  0999 V2000
    0.1102  -52.3806  -21.9734 C   0  0  0  0  0  0  0  0  0  0  0  0
   -0.6012  -53.5125  -22.1227 N   0  0  0  0  0  0  0  0  0  0  0  0
   -1.1988  -54.1131  -21.0573 C   0  0  0  0  0  0  0  0  0  0  0  0
   -1.1015  -53.5968  -19.8090 N   0  0  0  0  0  0  0  0  0  0  0  0
   -0.4094  -52.4778  -19.6048 C   0  0  0  0  0  0  0  0  0  0  0  0
   -0.3100  -51.9507  -18.3336 C   0  0  0  0  0  0  0  0  0  0  0  0
    0.4222  -50.7914  -18.2013 C   0  0  0  0  0  0  0  0  0  0  0  0
    1.0174  -50.2022  -19.2917 C   0  0  0  0  0  0  0  0  0  0  0  0
    0.8986  -50.7438  -20.5118 N   0  0  0  0  0  0  0  0  0  0  0  0
    0.2020  -51.8652  -20.7000 C   0  0  0  0  0  0  0  0  0  0  0  0
   -0.9375  -52.5624  -17.1678 C   0  0  0  0  0  0  0  0  0  0  0  0
   -2.1540  -53.2483  -17.3178 N   0  0  0  0  0  0  0  0  0  0  0  0
   -0.4107  -52.4904  -16.0188 O   0  0  0  0  0  0  0  0  0  0  0  0
   -2.8710  -53.1140  -16.5505 H   0  0  0  0  0  0  0  0  0  0  0  0
   -2.3285  -53.8494  -18.1387 H   0  0  0  0  0  0  0  0  0  0  0  0
    0.7262  -51.7647  -23.0970 N   0  0  0  0  0  0  0  0  0  0  0  0
    0.5265  -50.7481  -23.2538 H   0  0  0  0  0  0  0  0  0  0  0  0
    1.5927  -52.4949  -23.9943 C   0  0  0  0  0  0  0  0  0  0  0  0
    1.0145  -52.5344  -25.3378 C   0  0  0  0  0  0  0  0  0  0  0  0
   -0.2737  -52.1491  -25.6381 C   0  0  0  0  0  0  0  0  0  0  0  0
   -0.7701  -52.2055  -26.9232 C   0  0  0  0  0  0  0  0  0  0  0  0
    0.0258  -52.6562  -27.9506 C   0  0  0  0  0  0  0  0  0  0  0  0
   -0.6039  -52.7293  -29.5901 Cl  0  0  0  0  0  0  0  0  0  0  0  0
    1.3213  -53.0483  -27.6756 C   0  0  0  0  0  0  0  0  0  0  0  0
    1.7893  -52.9816  -26.3863 C   0  0  0  0  0  0  0  0  0  0  0  0
    2.9807  -51.9078  -23.9271 C   0  0  0  0  0  0  0  0  0  0  0  0
    4.2156  -51.3442  -21.9356 C   0  0  0  0  0  0  0  0  0  0  0  0
    3.1681  -50.9932  -22.8464 N   0  0  0  0  0  0  0  0  0  0  0  0
    3.3572  -50.0571  -23.2263 H   0  0  0  0  0  0  0  0  0  0  0  0
 27 28  1  0  0  0
 28 26  1  0  0  0
 26 18  1  0  0  0
 18 16  1  0  0  0
 16  1  1  0  0  0
  1  2  2  0  0  0
  2  3  1  0  0  0
  3  4  2  0  0  0
  4  5  1  0  0  0
  5  6  2  0  0  0
  6 11  1  0  0  0
 11 12  1  0  0  0
 11 13  2  0  0  0
  6  7  1  0  0  0
  7  8  2  0  0  0
  8  9  1  0  0  0
  9 10  2  0  0  0
 18 19  1  0  0  0
 19 20  2  0  0  0
 20 21  1  0  0  0
 21 22  2  0  0  0
 22 23  1  0  0  0
 22 24  1  0  0  0
 24 25  2  0  0  0
 10  1  1  0  0  0
 25 19  1  0  0  0
 10  5  1  0  0  0
 28 29  1  0  0  0
 16 17  1  0  0  0
 12 14  1  0  0  0
 12 15  1  0  0  0
M  END
> <minimizedAffinity>
-7.50748

> <CNNscore>
0.7784256935

> <CNNaffinity>
6.5780563354

> <CNN_VS>
5.1205282211

> <CNNaffinity_variance>
0.2401167452

$$$$
[H]c1nc(N([H])[C@@]([H])(c2c([H])c([H])c(Cl)c([H])c2[H])C([H])([H])N([H])C([H])([H])[H])c2nc([H])c([H])c(C(=O)N([H])[H])c2n1


 29 31  0  0  0  0  0  0  0  0999 V2000
    0.2863  -53.4479  -21.2686 C   0  0  0  0  0  0  0  0  0  0  0  0
   -0.7687  -54.2708  -21.1297 N   0  0  0  0  0  0  0  0  0  0  0  0
   -1.4075  -54.7846  -22.2164 C   0  0  0  0  0  0  0  0  0  0  0  0
   -1.0078  -54.4891  -23.4762 N   0  0  0  0  0  0  0  0  0  0  0  0
    0.0314  -53.6797  -23.6709 C   0  0  0  0  0  0  0  0  0  0  0  0
    0.4397  -53.3782  -24.9539 C   0  0  0  0  0  0  0  0  0  0  0  0
    1.5218  -52.5344  -25.0753 C   0  0  0  0  0  0  0  0  0  0  0  0
    2.1515  -52.0270  -23.9635 C   0  0  0  0  0  0  0  0  0  0  0  0
    1.7260  -52.3427  -22.7324 N   0  0  0  0  0  0  0  0  0  0  0  0
    0.6836  -53.1547  -22.5539 C   0  0  0  0  0  0  0  0  0  0  0  0
   -0.2163  -53.9102  -26.1429 C   0  0  0  0  0  0  0  0  0  0  0  0
    0.0645  -55.2221  -26.5586 N   0  0  0  0  0  0  0  0  0  0  0  0
   -1.0362  -53.2160  -26.8126 O   0  0  0  0  0  0  0  0  0  0  0  0
    0.1575  -55.3787  -27.6015 H   0  0  0  0  0  0  0  0  0  0  0  0
    0.1727  -55.9862  -25.8728 H   0  0  0  0  0  0  0  0  0  0  0  0
    0.9439  -52.9217  -20.1232 N   0  0  0  0  0  0  0  0  0  0  0  0
    1.6012  -53.5596  -19.6143 H   0  0  0  0  0  0  0  0  0  0  0  0
    0.7262  -51.5676  -19.6667 C   0  0  0  0  0  0  0  0  0  0  0  0
   -0.0115  -51.5707  -18.4031 C   0  0  0  0  0  0  0  0  0  0  0  0
   -0.8669  -52.5759  -18.0082 C   0  0  0  0  0  0  0  0  0  0  0  0
   -1.5384  -52.5302  -16.8048 C   0  0  0  0  0  0  0  0  0  0  0  0
   -1.3645  -51.4599  -15.9585 C   0  0  0  0  0  0  0  0  0  0  0  0
   -2.2190  -51.3984  -14.4235 Cl  0  0  0  0  0  0  0  0  0  0  0  0
   -0.5120  -50.4391  -16.3313 C   0  0  0  0  0  0  0  0  0  0  0  0
    0.1436  -50.5108  -17.5358 C   0  0  0  0  0  0  0  0  0  0  0  0
    2.0491  -50.8443  -19.6176 C   0  0  0  0  0  0  0  0  0  0  0  0
    4.2716  -51.0349  -20.5303 C   0  0  0  0  0  0  0  0  0  0  0  0
    3.1750  -51.6837  -19.8770 N   0  0  0  0  0  0  0  0  0  0  0  0
    3.5063  -52.0862  -18.9912 H   0  0  0  0  0  0  0  0  0  0  0  0
 27 28  1  0  0  0
 28 26  1  0  0  0
 26 18  1  0  0  0
 18 16  1  0  0  0
 16  1  1  0  0  0
  1  2  2  0  0  0
  2  3  1  0  0  0
  3  4  2  0  0  0
  4  5  1  0  0  0
  5  6  2  0  0  0
  6 11  1  0  0  0
 11 12  1  0  0  0
 11 13  2  0  0  0
  6  7  1  0  0  0
  7  8  2  0  0  0
  8  9  1  0  0  0
  9 10  2  0  0  0
 18 19  1  0  0  0
 19 20  2  0  0  0
 20 21  1  0  0  0
 21 22  2  0  0  0
 22 23  1  0  0  0
 22 24  1  0  0  0
 24 25  2  0  0  0
 10  1  1  0  0  0
 25 19  1  0  0  0
 10  5  1  0  0  0
 28 29  1  0  0  0
 16 17  1  0  0  0
 12 14  1  0  0  0
 12 15  1  0  0  0
M  END
> <minimizedAffinity>
-7.15579

> <CNNscore>
0.5652694702

> <CNNaffinity>
6.4383940697

> <CNN_VS>
3.6394276619

> <CNNaffinity_variance>
0.2298995554

$$$$
[H]c1nc(N([H])[C@@]([H])(c2c([H])c([H])c(Cl)c([H])c2[H])C([H])([H])N([H])C([H])([H])[H])c2nc([H])c([H])c(C(=O)N([H])[H])c2n1


 29 31  0  0  0  0  0  0  0  0999 V2000
    1.8259  -51.1410  -23.7172 C   0  0  0  0  0  0  0  0  0  0  0  0
    1.3486  -51.1977  -24.9736 N   0  0  0  0  0  0  0  0  0  0  0  0
    0.3558  -52.0660  -25.3101 C   0  0  0  0  0  0  0  0  0  0  0  0
   -0.1894  -52.9043  -24.3967 N   0  0  0  0  0  0  0  0  0  0  0  0
    0.2455  -52.8895  -23.1383 C   0  0  0  0  0  0  0  0  0  0  0  0
   -0.3095  -53.7427  -22.2068 C   0  0  0  0  0  0  0  0  0  0  0  0
    0.1923  -53.6692  -20.9259 C   0  0  0  0  0  0  0  0  0  0  0  0
    1.1957  -52.7845  -20.6088 C   0  0  0  0  0  0  0  0  0  0  0  0
    1.7102  -51.9707  -21.5412 N   0  0  0  0  0  0  0  0  0  0  0  0
    1.2640  -51.9977  -22.7974 C   0  0  0  0  0  0  0  0  0  0  0  0
   -1.3757  -54.6848  -22.5271 C   0  0  0  0  0  0  0  0  0  0  0  0
   -1.2639  -55.4924  -23.6708 N   0  0  0  0  0  0  0  0  0  0  0  0
   -2.4041  -54.7934  -21.7968 O   0  0  0  0  0  0  0  0  0  0  0  0
   -2.1478  -55.6401  -24.2344 H   0  0  0  0  0  0  0  0  0  0  0  0
   -0.3605  -55.9145  -23.9382 H   0  0  0  0  0  0  0  0  0  0  0  0
    2.8615  -50.2266  -23.3817 N   0  0  0  0  0  0  0  0  0  0  0  0
    3.8083  -50.6289  -23.1828 H   0  0  0  0  0  0  0  0  0  0  0  0
    2.6350  -48.8007  -23.3133 C   0  0  0  0  0  0  0  0  0  0  0  0
    2.8932  -48.3104  -21.9590 C   0  0  0  0  0  0  0  0  0  0  0  0
    4.0221  -47.6119  -21.5904 C   0  0  0  0  0  0  0  0  0  0  0  0
    4.2166  -47.1712  -20.2985 C   0  0  0  0  0  0  0  0  0  0  0  0
    3.2697  -47.4248  -19.3336 C   0  0  0  0  0  0  0  0  0  0  0  0
    3.5145  -46.8644  -17.6856 Cl  0  0  0  0  0  0  0  0  0  0  0  0
    2.1288  -48.1232  -19.6778 C   0  0  0  0  0  0  0  0  0  0  0  0
    1.9614  -48.5502  -20.9721 C   0  0  0  0  0  0  0  0  0  0  0  0
    3.4428  -48.1200  -24.3902 C   0  0  0  0  0  0  0  0  0  0  0  0
    3.7197  -48.0339  -26.7828 C   0  0  0  0  0  0  0  0  0  0  0  0
    3.4816  -48.8394  -25.6232 N   0  0  0  0  0  0  0  0  0  0  0  0
    4.2075  -49.5649  -25.5673 H   0  0  0  0  0  0  0  0  0  0  0  0
 27 28  1  0  0  0
 28 26  1  0  0  0
 26 18  1  0  0  0
 18 16  1  0  0  0
 16  1  1  0  0  0
  1  2  2  0  0  0
  2  3  1  0  0  0
  3  4  2  0  0  0
  4  5  1  0  0  0
  5  6  2  0  0  0
  6 11  1  0  0  0
 11 12  1  0  0  0
 11 13  2  0  0  0
  6  7  1  0  0  0
  7  8  2  0  0  0
  8  9  1  0  0  0
  9 10  2  0  0  0
 18 19  1  0  0  0
 19 20  2  0  0  0
 20 21  1  0  0  0
 21 22  2  0  0  0
 22 23  1  0  0  0
 22 24  1  0  0  0
 24 25  2  0  0  0
 10  1  1  0  0  0
 25 19  1  0  0  0
 10  5  1  0  0  0
 28 29  1  0  0  0
 16 17  1  0  0  0
 12 14  1  0  0  0
 12 15  1  0  0  0
M  END
> <minimizedAffinity>
-5.66393

> <CNNscore>
0.5596203804

> <CNNaffinity>
6.4070878029

> <CNN_VS>
3.5855369568

> <CNNaffinity_variance>
0.5520596504

$$$$
[H]c1nc(N([H])[C@@]([H])(c2c([H])c([H])c(Cl)c([H])c2[H])C([H])([H])N([H])C([H])([H])[H])c2nc([H])c([H])c(C(=O)N([H])[H])c2n1


 29 31  0  0  0  0  0  0  0  0999 V2000
   -0.1388  -52.0627  -21.5355 C   0  0  0  0  0  0  0  0  0  0  0  0
   -0.6089  -53.0829  -20.7953 N   0  0  0  0  0  0  0  0  0  0  0  0
   -0.5577  -53.0470  -19.4355 C   0  0  0  0  0  0  0  0  0  0  0  0
   -0.0335  -51.9866  -18.7759 N   0  0  0  0  0  0  0  0  0  0  0  0
    0.4457  -50.9495  -19.4597 C   0  0  0  0  0  0  0  0  0  0  0  0
    0.9796  -49.8684  -18.7888 C   0  0  0  0  0  0  0  0  0  0  0  0
    1.4552  -48.8339  -19.5643 C   0  0  0  0  0  0  0  0  0  0  0  0
    1.3934  -48.8920  -20.9365 C   0  0  0  0  0  0  0  0  0  0  0  0
    0.8673  -49.9593  -21.5531 N   0  0  0  0  0  0  0  0  0  0  0  0
    0.3915  -50.9903  -20.8540 C   0  0  0  0  0  0  0  0  0  0  0  0
    1.0500  -49.7911  -17.3342 C   0  0  0  0  0  0  0  0  0  0  0  0
    2.0004  -50.5632  -16.6462 N   0  0  0  0  0  0  0  0  0  0  0  0
    0.2725  -49.0420  -16.6731 O   0  0  0  0  0  0  0  0  0  0  0  0
    1.6826  -51.0078  -15.7395 H   0  0  0  0  0  0  0  0  0  0  0  0
    2.9566  -50.6841  -17.0160 H   0  0  0  0  0  0  0  0  0  0  0  0
   -0.2020  -52.1149  -22.9548 N   0  0  0  0  0  0  0  0  0  0  0  0
   -0.9085  -51.5002  -23.4247 H   0  0  0  0  0  0  0  0  0  0  0  0
    0.6635  -52.9737  -23.7312 C   0  0  0  0  0  0  0  0  0  0  0  0
    0.2197  -53.0147  -25.1249 C   0  0  0  0  0  0  0  0  0  0  0  0
    0.7884  -53.8099  -26.0957 C   0  0  0  0  0  0  0  0  0  0  0  0
    0.3310  -53.8113  -27.3964 C   0  0  0  0  0  0  0  0  0  0  0  0
   -0.7222  -53.0036  -27.7577 C   0  0  0  0  0  0  0  0  0  0  0  0
   -1.3079  -53.0029  -29.4151 Cl  0  0  0  0  0  0  0  0  0  0  0  0
   -1.3098  -52.1971  -26.8028 C   0  0  0  0  0  0  0  0  0  0  0  0
   -0.8336  -52.2159  -25.5150 C   0  0  0  0  0  0  0  0  0  0  0  0
    2.0940  -52.5338  -23.5424 C   0  0  0  0  0  0  0  0  0  0  0  0
    3.5448  -51.0746  -24.7973 C   0  0  0  0  0  0  0  0  0  0  0  0
    2.3566  -51.2101  -24.0098 N   0  0  0  0  0  0  0  0  0  0  0  0
    1.5532  -50.8818  -24.5604 H   0  0  0  0  0  0  0  0  0  0  0  0
 27 28  1  0  0  0
 28 26  1  0  0  0
 26 18  1  0  0  0
 18 16  1  0  0  0
 16  1  1  0  0  0
  1  2  2  0  0  0
  2  3  1  0  0  0
  3  4  2  0  0  0
  4  5  1  0  0  0
  5  6  2  0  0  0
  6 11  1  0  0  0
 11 12  1  0  0  0
 11 13  2  0  0  0
  6  7  1  0  0  0
  7  8  2  0  0  0
  8  9  1  0  0  0
  9 10  2  0  0  0
 18 19  1  0  0  0
 19 20  2  0  0  0
 20 21  1  0  0  0
 21 22  2  0  0  0
 22 23  1  0  0  0
 22 24  1  0  0  0
 24 25  2  0  0  0
 10  1  1  0  0  0
 25 19  1  0  0  0
 10  5  1  0  0  0
 28 29  1  0  0  0
 16 17  1  0  0  0
 12 14  1  0  0  0
 12 15  1  0  0  0
M  END
> <minimizedAffinity>
-6.88002

> <CNNscore>
0.5143974423

> <CNNaffinity>
6.3092417717

> <CNN_VS>
3.2454578876

> <CNNaffinity_variance>
0.3666168749

$$$$
[H]c1nc(N([H])[C@@]([H])(c2c([H])c([H])c(Cl)c([H])c2[H])C([H])([H])N([H])C([H])([H])[H])c2nc([H])c([H])c(C(=O)N([H])[H])c2n1


 29 31  0  0  0  0  0  0  0  0999 V2000
    0.9343  -52.8256  -20.5317 C   0  0  0  0  0  0  0  0  0  0  0  0
   -0.1441  -53.5083  -20.1067 N   0  0  0  0  0  0  0  0  0  0  0  0
   -1.0237  -54.0544  -20.9905 C   0  0  0  0  0  0  0  0  0  0  0  0
   -0.8489  -53.9328  -22.3280 N   0  0  0  0  0  0  0  0  0  0  0  0
    0.2021  -53.2674  -22.8029 C   0  0  0  0  0  0  0  0  0  0  0  0
    0.3815  -53.1433  -24.1653 C   0  0  0  0  0  0  0  0  0  0  0  0
    1.4916  -52.4412  -24.5805 C   0  0  0  0  0  0  0  0  0  0  0  0
    2.3666  -51.8979  -23.6698 C   0  0  0  0  0  0  0  0  0  0  0  0
    2.1592  -52.0394  -22.3533 N   0  0  0  0  0  0  0  0  0  0  0  0
    1.1016  -52.7087  -21.8933 C   0  0  0  0  0  0  0  0  0  0  0  0
   -0.5362  -53.7157  -25.1436 C   0  0  0  0  0  0  0  0  0  0  0  0
   -0.5090  -55.0981  -25.3906 N   0  0  0  0  0  0  0  0  0  0  0  0
   -1.3605  -52.9945  -25.7786 O   0  0  0  0  0  0  0  0  0  0  0  0
   -0.6206  -55.4012  -26.3988 H   0  0  0  0  0  0  0  0  0  0  0  0
   -0.3857  -55.7742  -24.6203 H   0  0  0  0  0  0  0  0  0  0  0  0
    1.8446  -52.2635  -19.5954 N   0  0  0  0  0  0  0  0  0  0  0  0
    2.7154  -52.8086  -19.3891 H   0  0  0  0  0  0  0  0  0  0  0  0
    1.5948  -50.9960  -18.9470 C   0  0  0  0  0  0  0  0  0  0  0  0
    1.9189  -49.8916  -19.8503 C   0  0  0  0  0  0  0  0  0  0  0  0
    0.9847  -49.1834  -20.5741 C   0  0  0  0  0  0  0  0  0  0  0  0
    1.3437  -48.1491  -21.4122 C   0  0  0  0  0  0  0  0  0  0  0  0
    2.6667  -47.7968  -21.5450 C   0  0  0  0  0  0  0  0  0  0  0  0
    3.1279  -46.4786  -22.6126 Cl  0  0  0  0  0  0  0  0  0  0  0  0
    3.6228  -48.4913  -20.8299 C   0  0  0  0  0  0  0  0  0  0  0  0
    3.2366  -49.5171  -20.0027 C   0  0  0  0  0  0  0  0  0  0  0  0
    0.1810  -50.9806  -18.4212 C   0  0  0  0  0  0  0  0  0  0  0  0
    0.1460  -49.4327  -16.5742 C   0  0  0  0  0  0  0  0  0  0  0  0
    0.0935  -50.7963  -17.0078 N   0  0  0  0  0  0  0  0  0  0  0  0
   -0.7778  -51.2210  -16.6660 H   0  0  0  0  0  0  0  0  0  0  0  0
 27 28  1  0  0  0
 28 26  1  0  0  0
 26 18  1  0  0  0
 18 16  1  0  0  0
 16  1  1  0  0  0
  1  2  2  0  0  0
  2  3  1  0  0  0
  3  4  2  0  0  0
  4  5  1  0  0  0
  5  6  2  0  0  0
  6 11  1  0  0  0
 11 12  1  0  0  0
 11 13  2  0  0  0
  6  7  1  0  0  0
  7  8  2  0  0  0
  8  9  1  0  0  0
  9 10  2  0  0  0
 18 19  1  0  0  0
 19 20  2  0  0  0
 20 21  1  0  0  0
 21 22  2  0  0  0
 22 23  1  0  0  0
 22 24  1  0  0  0
 24 25  2  0  0  0
 10  1  1  0  0  0
 25 19  1  0  0  0
 10  5  1  0  0  0
 28 29  1  0  0  0
 16 17  1  0  0  0
 12 14  1  0  0  0
 12 15  1  0  0  0
M  END
> <minimizedAffinity>
-6.35974

> <CNNscore>
0.4109905064

> <CNNaffinity>
6.3797316551

> <CNN_VS>
2.6220090389

> <CNNaffinity_variance>
0.3550038338

$$$$
[H]c1nc(N([H])[C@@]([H])(c2c([H])c([H])c(Cl)c([H])c2[H])C([H])([H])N([H])C([H])([H])[H])c2nc([H])c([H])c(C(=O)N([H])[H])c2n1


 29 31  0  0  0  0  0  0  0  0999 V2000
   -0.5855  -53.0439  -22.1807 C   0  0  0  0  0  0  0  0  0  0  0  0
   -1.2285  -54.2137  -22.0134 N   0  0  0  0  0  0  0  0  0  0  0  0
   -1.3849  -55.0843  -23.0481 C   0  0  0  0  0  0  0  0  0  0  0  0
   -0.9010  -54.8087  -24.2827 N   0  0  0  0  0  0  0  0  0  0  0  0
   -0.2561  -53.6649  -24.5036 C   0  0  0  0  0  0  0  0  0  0  0  0
    0.2377  -53.3833  -25.7608 C   0  0  0  0  0  0  0  0  0  0  0  0
    0.8930  -52.1810  -25.9118 C   0  0  0  0  0  0  0  0  0  0  0  0
    1.0390  -51.3169  -24.8524 C   0  0  0  0  0  0  0  0  0  0  0  0
    0.5457  -51.6252  -23.6450 N   0  0  0  0  0  0  0  0  0  0  0  0
   -0.0980  -52.7748  -23.4399 C   0  0  0  0  0  0  0  0  0  0  0  0
    0.0929  -54.2905  -26.8935 C   0  0  0  0  0  0  0  0  0  0  0  0
    0.4036  -55.6508  -26.7336 N   0  0  0  0  0  0  0  0  0  0  0  0
   -0.3075  -53.8806  -28.0224 O   0  0  0  0  0  0  0  0  0  0  0  0
    0.9089  -56.1188  -27.5376 H   0  0  0  0  0  0  0  0  0  0  0  0
    0.1475  -56.1576  -25.8714 H   0  0  0  0  0  0  0  0  0  0  0  0
   -0.4287  -52.1468  -21.0890 N   0  0  0  0  0  0  0  0  0  0  0  0
   -1.0648  -51.3148  -21.0590 H   0  0  0  0  0  0  0  0  0  0  0  0
    0.5608  -52.3587  -20.0567 C   0  0  0  0  0  0  0  0  0  0  0  0
    1.6262  -51.3614  -20.1630 C   0  0  0  0  0  0  0  0  0  0  0  0
    2.9587  -51.6239  -19.9312 C   0  0  0  0  0  0  0  0  0  0  0  0
    3.9244  -50.6466  -20.0459 C   0  0  0  0  0  0  0  0  0  0  0  0
    3.5702  -49.3656  -20.4007 C   0  0  0  0  0  0  0  0  0  0  0  0
    4.7989  -48.1172  -20.5479 Cl  0  0  0  0  0  0  0  0  0  0  0  0
    2.2407  -49.0768  -20.6387 C   0  0  0  0  0  0  0  0  0  0  0  0
    1.3001  -50.0698  -20.5169 C   0  0  0  0  0  0  0  0  0  0  0  0
   -0.1268  -52.3997  -18.7146 C   0  0  0  0  0  0  0  0  0  0  0  0
   -2.1107  -53.1029  -17.5406 C   0  0  0  0  0  0  0  0  0  0  0  0
   -1.2459  -53.2856  -18.6670 N   0  0  0  0  0  0  0  0  0  0  0  0
   -1.7956  -53.1806  -19.5291 H   0  0  0  0  0  0  0  0  0  0  0  0
 27 28  1  0  0  0
 28 26  1  0  0  0
 26 18  1  0  0  0
 18 16  1  0  0  0
 16  1  1  0  0  0
  1  2  2  0  0  0
  2  3  1  0  0  0
  3  4  2  0  0  0
  4  5  1  0  0  0
  5  6  2  0  0  0
  6 11  1  0  0  0
 11 12  1  0  0  0
 11 13  2  0  0  0
  6  7  1  0  0  0
  7  8  2  0  0  0
  8  9  1  0  0  0
  9 10  2  0  0  0
 18 19  1  0  0  0
 19 20  2  0  0  0
 20 21  1  0  0  0
 21 22  2  0  0  0
 22 23  1  0  0  0
 22 24  1  0  0  0
 24 25  2  0  0  0
 10  1  1  0  0  0
 25 19  1  0  0  0
 10  5  1  0  0  0
 28 29  1  0  0  0
 16 17  1  0  0  0
 12 14  1  0  0  0
 12 15  1  0  0  0
M  END
> <minimizedAffinity>
-7.10431

> <CNNscore>
0.4089451432

> <CNNaffinity>
6.5419859886

> <CNN_VS>
2.6753134727

> <CNNaffinity_variance>
0.1082535237

$$$$
[H]c1nc(N([H])[C@@]([H])(c2c([H])c([H])c(Cl)c([H])c2[H])C([H])([H])N([H])C([H])([H])[H])c2nc([H])c([H])c(C(=O)N([H])[H])c2n1


 29 31  0  0  0  0  0  0  0  0999 V2000
    0.3756  -51.2029  -21.7581 C   0  0  0  0  0  0  0  0  0  0  0  0
    1.0641  -50.0850  -22.0513 N   0  0  0  0  0  0  0  0  0  0  0  0
    1.5360  -49.2715  -21.0671 C   0  0  0  0  0  0  0  0  0  0  0  0
    1.3322  -49.5542  -19.7584 N   0  0  0  0  0  0  0  0  0  0  0  0
    0.6572  -50.6485  -19.4123 C   0  0  0  0  0  0  0  0  0  0  0  0
    0.4493  -50.9377  -18.0793 C   0  0  0  0  0  0  0  0  0  0  0  0
   -0.2573  -52.0867  -17.7996 C   0  0  0  0  0  0  0  0  0  0  0  0
   -0.7248  -52.8934  -18.8100 C   0  0  0  0  0  0  0  0  0  0  0  0
   -0.5030  -52.5796  -20.0940 N   0  0  0  0  0  0  0  0  0  0  0  0
    0.1748  -51.4799  -20.4245 C   0  0  0  0  0  0  0  0  0  0  0  0
    0.9407  -50.0934  -16.9964 C   0  0  0  0  0  0  0  0  0  0  0  0
    0.4170  -48.8001  -16.8362 N   0  0  0  0  0  0  0  0  0  0  0  0
    1.8317  -50.4989  -16.1935 O   0  0  0  0  0  0  0  0  0  0  0  0
    1.1056  -48.0391  -16.5764 H   0  0  0  0  0  0  0  0  0  0  0  0
   -0.5898  -48.6134  -16.9680 H   0  0  0  0  0  0  0  0  0  0  0  0
   -0.1083  -52.0430  -22.7979 N   0  0  0  0  0  0  0  0  0  0  0  0
   -1.1346  -52.0038  -23.0054 H   0  0  0  0  0  0  0  0  0  0  0  0
    0.7642  -52.9195  -23.5461 C   0  0  0  0  0  0  0  0  0  0  0  0
    0.3452  -52.9774  -24.9469 C   0  0  0  0  0  0  0  0  0  0  0  0
    0.7584  -53.9420  -25.8397 C   0  0  0  0  0  0  0  0  0  0  0  0
    0.3325  -53.9513  -27.1509 C   0  0  0  0  0  0  0  0  0  0  0  0
   -0.5298  -52.9794  -27.6027 C   0  0  0  0  0  0  0  0  0  0  0  0
   -1.0748  -52.9883  -29.2739 Cl  0  0  0  0  0  0  0  0  0  0  0  0
   -0.9590  -52.0011  -26.7272 C   0  0  0  0  0  0  0  0  0  0  0  0
   -0.5184  -52.0163  -25.4267 C   0  0  0  0  0  0  0  0  0  0  0  0
    2.1945  -52.4879  -23.3378 C   0  0  0  0  0  0  0  0  0  0  0  0
    3.9874  -51.8644  -24.8230 C   0  0  0  0  0  0  0  0  0  0  0  0
    2.6731  -51.5800  -24.3308 N   0  0  0  0  0  0  0  0  0  0  0  0
    2.0168  -51.5691  -25.1217 H   0  0  0  0  0  0  0  0  0  0  0  0
 27 28  1  0  0  0
 28 26  1  0  0  0
 26 18  1  0  0  0
 18 16  1  0  0  0
 16  1  1  0  0  0
  1  2  2  0  0  0
  2  3  1  0  0  0
  3  4  2  0  0  0
  4  5  1  0  0  0
  5  6  2  0  0  0
  6 11  1  0  0  0
 11 12  1  0  0  0
 11 13  2  0  0  0
  6  7  1  0  0  0
  7  8  2  0  0  0
  8  9  1  0  0  0
  9 10  2  0  0  0
 18 19  1  0  0  0
 19 20  2  0  0  0
 20 21  1  0  0  0
 21 22  2  0  0  0
 22 23  1  0  0  0
 22 24  1  0  0  0
 24 25  2  0  0  0
 10  1  1  0  0  0
 25 19  1  0  0  0
 10  5  1  0  0  0
 28 29  1  0  0  0
 16 17  1  0  0  0
 12 14  1  0  0  0
 12 15  1  0  0  0
M  END
> <minimizedAffinity>
-6.81650

> <CNNscore>
0.3409938514

> <CNNaffinity>
6.2443709373

> <CNN_VS>
2.1292920113

> <CNNaffinity_variance>
0.2992805839

$$$$
[H]c1nc(N([H])[C@@]([H])(c2c([H])c([H])c(Cl)c([H])c2[H])C([H])([H])N([H])C([H])([H])[H])c2nc([H])c([H])c(C(=O)N([H])[H])c2n1


 29 31  0  0  0  0  0  0  0  0999 V2000
    0.3155  -52.9516  -21.2880 C   0  0  0  0  0  0  0  0  0  0  0  0
   -0.7363  -53.7676  -21.0940 N   0  0  0  0  0  0  0  0  0  0  0  0
   -1.3064  -54.4387  -22.1321 C   0  0  0  0  0  0  0  0  0  0  0  0
   -0.8391  -54.3124  -23.3970 N   0  0  0  0  0  0  0  0  0  0  0  0
    0.2002  -53.5179  -23.6451 C   0  0  0  0  0  0  0  0  0  0  0  0
    0.6775  -53.3888  -24.9333 C   0  0  0  0  0  0  0  0  0  0  0  0
    1.7550  -52.5492  -25.1113 C   0  0  0  0  0  0  0  0  0  0  0  0
    2.3147  -51.8812  -24.0480 C   0  0  0  0  0  0  0  0  0  0  0  0
    1.8235  -52.0319  -22.8101 N   0  0  0  0  0  0  0  0  0  0  0  0
    0.7818  -52.8313  -22.5779 C   0  0  0  0  0  0  0  0  0  0  0  0
    0.0962  -54.0924  -26.0708 C   0  0  0  0  0  0  0  0  0  0  0  0
   -1.0040  -53.5327  -26.7409 N   0  0  0  0  0  0  0  0  0  0  0  0
    0.5607  -55.1999  -26.4713 O   0  0  0  0  0  0  0  0  0  0  0  0
   -1.7632  -54.2039  -27.0474 H   0  0  0  0  0  0  0  0  0  0  0  0
   -1.0585  -52.5173  -26.9193 H   0  0  0  0  0  0  0  0  0  0  0  0
    0.9009  -52.2598  -20.1925 N   0  0  0  0  0  0  0  0  0  0  0  0
    1.7168  -52.7167  -19.7198 H   0  0  0  0  0  0  0  0  0  0  0  0
    0.4040  -50.9809  -19.7377 C   0  0  0  0  0  0  0  0  0  0  0  0
    0.1037  -51.0332  -18.3066 C   0  0  0  0  0  0  0  0  0  0  0  0
    0.4308  -50.0397  -17.4099 C   0  0  0  0  0  0  0  0  0  0  0  0
    0.1239  -50.1384  -16.0694 C   0  0  0  0  0  0  0  0  0  0  0  0
   -0.5273  -51.2518  -15.5913 C   0  0  0  0  0  0  0  0  0  0  0  0
   -0.9202  -51.3809  -13.8828 Cl  0  0  0  0  0  0  0  0  0  0  0  0
   -0.8664  -52.2619  -16.4702 C   0  0  0  0  0  0  0  0  0  0  0  0
   -0.5481  -52.1369  -17.8001 C   0  0  0  0  0  0  0  0  0  0  0  0
    1.3816  -49.9023  -20.1334 C   0  0  0  0  0  0  0  0  0  0  0  0
    2.1062  -48.4412  -21.9078 C   0  0  0  0  0  0  0  0  0  0  0  0
    1.0630  -49.2604  -21.3687 N   0  0  0  0  0  0  0  0  0  0  0  0
    0.8077  -49.9740  -22.0630 H   0  0  0  0  0  0  0  0  0  0  0  0
 27 28  1  0  0  0
 28 26  1  0  0  0
 26 18  1  0  0  0
 18 16  1  0  0  0
 16  1  1  0  0  0
  1  2  2  0  0  0
  2  3  1  0  0  0
  3  4  2  0  0  0
  4  5  1  0  0  0
  5  6  2  0  0  0
  6 11  1  0  0  0
 11 12  1  0  0  0
 11 13  2  0  0  0
  6  7  1  0  0  0
  7  8  2  0  0  0
  8  9  1  0  0  0
  9 10  2  0  0  0
 18 19  1  0  0  0
 19 20  2  0  0  0
 20 21  1  0  0  0
 21 22  2  0  0  0
 22 23  1  0  0  0
 22 24  1  0  0  0
 24 25  2  0  0  0
 10  1  1  0  0  0
 25 19  1  0  0  0
 10  5  1  0  0  0
 28 29  1  0  0  0
 16 17  1  0  0  0
 12 14  1  0  0  0
 12 15  1  0  0  0
M  END
> <minimizedAffinity>
-6.71004

> <CNNscore>
0.2799053788

> <CNNaffinity>
6.2297220230

> <CNN_VS>
1.7437326908

> <CNNaffinity_variance>
0.3571743071

$$$$
[H]c1nc(N([H])[C@@]([H])(c2c([H])c([H])c(Cl)c([H])c2[H])C([H])([H])N([H])C([H])([H])[H])c2nc([H])c([H])c(C(=O)N([H])[H])c2n1


 29 31  0  0  0  0  0  0  0  0999 V2000
    0.3055  -53.1131  -22.1729 C   0  0  0  0  0  0  0  0  0  0  0  0
   -0.8422  -53.8124  -22.2314 N   0  0  0  0  0  0  0  0  0  0  0  0
   -1.6614  -53.9111  -21.1487 C   0  0  0  0  0  0  0  0  0  0  0  0
   -1.3548  -53.3113  -19.9737 N   0  0  0  0  0  0  0  0  0  0  0  0
   -0.2309  -52.6064  -19.8609 C   0  0  0  0  0  0  0  0  0  0  0  0
    0.0822  -51.9945  -18.6645 C   0  0  0  0  0  0  0  0  0  0  0  0
    1.2611  -51.2831  -18.6247 C   0  0  0  0  0  0  0  0  0  0  0  0
    2.0733  -51.1971  -19.7307 C   0  0  0  0  0  0  0  0  0  0  0  0
    1.7356  -51.8052  -20.8763 N   0  0  0  0  0  0  0  0  0  0  0  0
    0.6065  -52.5078  -20.9734 C   0  0  0  0  0  0  0  0  0  0  0  0
   -0.7699  -52.0745  -17.4836 C   0  0  0  0  0  0  0  0  0  0  0  0
   -1.3578  -53.3022  -17.1373 N   0  0  0  0  0  0  0  0  0  0  0  0
   -0.9939  -51.0604  -16.7595 O   0  0  0  0  0  0  0  0  0  0  0  0
   -2.3560  -53.2669  -16.7863 H   0  0  0  0  0  0  0  0  0  0  0  0
   -0.8335  -54.1871  -17.2252 H   0  0  0  0  0  0  0  0  0  0  0  0
    1.1487  -53.0179  -23.3136 N   0  0  0  0  0  0  0  0  0  0  0  0
    2.0982  -53.4556  -23.2439 H   0  0  0  0  0  0  0  0  0  0  0  0
    0.7299  -52.3494  -24.5248 C   0  0  0  0  0  0  0  0  0  0  0  0
    1.7064  -51.3278  -24.9039 C   0  0  0  0  0  0  0  0  0  0  0  0
    2.2161  -50.3846  -24.0386 C   0  0  0  0  0  0  0  0  0  0  0  0
    3.1362  -49.4427  -24.4473 C   0  0  0  0  0  0  0  0  0  0  0  0
    3.5720  -49.4254  -25.7519 C   0  0  0  0  0  0  0  0  0  0  0  0
    4.7451  -48.2259  -26.2764 Cl  0  0  0  0  0  0  0  0  0  0  0  0
    3.0763  -50.3606  -26.6392 C   0  0  0  0  0  0  0  0  0  0  0  0
    2.1605  -51.2870  -26.2046 C   0  0  0  0  0  0  0  0  0  0  0  0
    0.4587  -53.3823  -25.5903 C   0  0  0  0  0  0  0  0  0  0  0  0
   -1.2530  -52.5344  -27.0600 C   0  0  0  0  0  0  0  0  0  0  0  0
   -0.9068  -53.4381  -26.0047 N   0  0  0  0  0  0  0  0  0  0  0  0
   -1.1300  -54.3967  -26.3009 H   0  0  0  0  0  0  0  0  0  0  0  0
 27 28  1  0  0  0
 28 26  1  0  0  0
 26 18  1  0  0  0
 18 16  1  0  0  0
 16  1  1  0  0  0
  1  2  2  0  0  0
  2  3  1  0  0  0
  3  4  2  0  0  0
  4  5  1  0  0  0
  5  6  2  0  0  0
  6 11  1  0  0  0
 11 12  1  0  0  0
 11 13  2  0  0  0
  6  7  1  0  0  0
  7  8  2  0  0  0
  8  9  1  0  0  0
  9 10  2  0  0  0
 18 19  1  0  0  0
 19 20  2  0  0  0
 20 21  1  0  0  0
 21 22  2  0  0  0
 22 23  1  0  0  0
 22 24  1  0  0  0
 24 25  2  0  0  0
 10  1  1  0  0  0
 25 19  1  0  0  0
 10  5  1  0  0  0
 28 29  1  0  0  0
 16 17  1  0  0  0
 12 14  1  0  0  0
 12 15  1  0  0  0
M  END
> <minimizedAffinity>
-6.78934

> <CNNscore>
0.2679599226

> <CNNaffinity>
6.2531762123

> <CNN_VS>
1.6756006479

> <CNNaffinity_variance>
0.3000084460

$$$$
[H]Oc1c(OC([H])([H])[H])c(OC([H])([H])[H])c2c3c1-c1c([H])c([H])c([H])c([H])c1C([H])([H])[C@@]3([H])N([H])C([H])([H])C2([H])[H]


 24 27  0  0  0  0  0  0  0  0999 V2000
   -0.6766  -53.9293  -23.8643 C   0  0  0  0  0  0  0  0  0  0  0  0
   -0.7342  -53.6727  -22.5012 C   0  0  0  0  0  0  0  0  0  0  0  0
   -1.4558  -54.5754  -21.7672 O   0  0  0  0  0  0  0  0  0  0  0  0
   -0.0783  -52.5636  -22.0171 C   0  0  0  0  0  0  0  0  0  0  0  0
    0.6226  -51.7147  -22.8444 C   0  0  0  0  0  0  0  0  0  0  0  0
    0.6567  -52.0076  -24.2039 C   0  0  0  0  0  0  0  0  0  0  0  0
    0.0194  -53.0997  -24.7272 C   0  0  0  0  0  0  0  0  0  0  0  0
    1.4070  -51.0918  -25.0808 C   0  0  0  0  0  0  0  0  0  0  0  0
    2.5858  -50.4586  -24.4490 C   0  0  0  0  0  0  0  0  0  0  0  0
    2.5199  -50.2065  -23.0720 N   0  0  0  0  0  0  0  0  0  0  0  0
    1.2849  -50.5108  -22.4007 C   0  0  0  0  0  0  0  0  0  0  0  0
    1.5130  -50.3985  -20.9483 C   0  0  0  0  0  0  0  0  0  0  0  0
    0.6526  -51.2199  -20.0923 C   0  0  0  0  0  0  0  0  0  0  0  0
    0.6029  -50.9300  -18.7165 C   0  0  0  0  0  0  0  0  0  0  0  0
   -0.1277  -51.6784  -17.8449 C   0  0  0  0  0  0  0  0  0  0  0  0
   -0.8208  -52.7350  -18.3590 C   0  0  0  0  0  0  0  0  0  0  0  0
   -0.8160  -53.0784  -19.7181 C   0  0  0  0  0  0  0  0  0  0  0  0
   -0.0751  -52.3108  -20.5737 C   0  0  0  0  0  0  0  0  0  0  0  0
   -1.9265  -55.3768  -22.1294 H   0  0  0  0  0  0  0  0  0  0  0  0
    2.7582  -49.2064  -22.8220 H   0  0  0  0  0  0  0  0  0  0  0  0
   -0.7235  -56.2555  -24.6922 C   0  0  0  0  0  0  0  0  0  0  0  0
   -1.3261  -55.0351  -24.3748 O   0  0  0  0  0  0  0  0  0  0  0  0
    0.0801  -53.3533  -26.0899 O   0  0  0  0  0  0  0  0  0  0  0  0
   -0.9179  -52.8492  -26.9470 C   0  0  0  0  0  0  0  0  0  0  0  0
 21 22  1  0  0  0
 22  1  1  0  0  0
  1  2  2  0  0  0
  2  3  1  0  0  0
  2  4  1  0  0  0
  4  5  2  0  0  0
  5  6  1  0  0  0
  6  7  2  0  0  0
  7 23  1  0  0  0
 23 24  1  0  0  0
  6  8  1  0  0  0
  8  9  1  0  0  0
  9 10  1  0  0  0
 10 11  1  0  0  0
 11 12  1  0  0  0
 12 13  1  0  0  0
 13 14  2  0  0  0
 14 15  1  0  0  0
 15 16  2  0  0  0
 16 17  1  0  0  0
 17 18  2  0  0  0
  7  1  1  0  0  0
 18 13  1  0  0  0
 18  4  1  0  0  0
 11  5  1  0  0  0
  3 19  1  0  0  0
 10 20  1  0  0  0
M  END
> <minimizedAffinity>
-7.84957

> <CNNscore>
0.6990245581

> <CNNaffinity>
6.1189475060

> <CNN_VS>
4.2772946358

> <CNNaffinity_variance>
0.2094576061

$$$$
[H]Oc1c(OC([H])([H])[H])c(OC([H])([H])[H])c2c3c1-c1c([H])c([H])c([H])c([H])c1C([H])([H])[C@@]3([H])N([H])C([H])([H])C2([H])[H]


 24 27  0  0  0  0  0  0  0  0999 V2000
    0.1722  -53.5939  -24.0591 C   0  0  0  0  0  0  0  0  0  0  0  0
    0.1232  -53.1072  -22.7600 C   0  0  0  0  0  0  0  0  0  0  0  0
   -1.0153  -53.4138  -22.0641 O   0  0  0  0  0  0  0  0  0  0  0  0
    1.1944  -52.3786  -22.2946 C   0  0  0  0  0  0  0  0  0  0  0  0
    2.2970  -52.1249  -23.0795 C   0  0  0  0  0  0  0  0  0  0  0  0
    2.3073  -52.6310  -24.3753 C   0  0  0  0  0  0  0  0  0  0  0  0
    1.2643  -53.3606  -24.8777 C   0  0  0  0  0  0  0  0  0  0  0  0
    3.4903  -52.3517  -25.2077 C   0  0  0  0  0  0  0  0  0  0  0  0
    4.7636  -52.2564  -24.4599 C   0  0  0  0  0  0  0  0  0  0  0  0
    4.7040  -51.7672  -23.1479 N   0  0  0  0  0  0  0  0  0  0  0  0
    3.4244  -51.3247  -22.6629 C   0  0  0  0  0  0  0  0  0  0  0  0
    3.5424  -51.0827  -21.2132 C   0  0  0  0  0  0  0  0  0  0  0  0
    2.3130  -51.2319  -20.4296 C   0  0  0  0  0  0  0  0  0  0  0  0
    2.2863  -50.7181  -19.1202 C   0  0  0  0  0  0  0  0  0  0  0  0
    1.2036  -50.8633  -18.3076 C   0  0  0  0  0  0  0  0  0  0  0  0
    0.1292  -51.5342  -18.8140 C   0  0  0  0  0  0  0  0  0  0  0  0
    0.0892  -52.0698  -20.1088 C   0  0  0  0  0  0  0  0  0  0  0  0
    1.1886  -51.9101  -20.9062 C   0  0  0  0  0  0  0  0  0  0  0  0
   -1.7854  -53.9439  -22.4120 H   0  0  0  0  0  0  0  0  0  0  0  0
    5.3822  -50.9748  -22.9699 H   0  0  0  0  0  0  0  0  0  0  0  0
   -1.0046  -55.7193  -24.5025 C   0  0  0  0  0  0  0  0  0  0  0  0
   -0.8893  -54.3273  -24.5496 O   0  0  0  0  0  0  0  0  0  0  0  0
    1.3173  -53.8461  -26.1764 O   0  0  0  0  0  0  0  0  0  0  0  0
    0.6740  -53.1486  -27.2177 C   0  0  0  0  0  0  0  0  0  0  0  0
 21 22  1  0  0  0
 22  1  1  0  0  0
  1  2  2  0  0  0
  2  3  1  0  0  0
  2  4  1  0  0  0
  4  5  2  0  0  0
  5  6  1  0  0  0
  6  7  2  0  0  0
  7 23  1  0  0  0
 23 24  1  0  0  0
  6  8  1  0  0  0
  8  9  1  0  0  0
  9 10  1  0  0  0
 10 11  1  0  0  0
 11 12  1  0  0  0
 12 13  1  0  0  0
 13 14  2  0  0  0
 14 15  1  0  0  0
 15 16  2  0  0  0
 16 17  1  0  0  0
 17 18  2  0  0  0
  7  1  1  0  0  0
 18 13  1  0  0  0
 18  4  1  0  0  0
 11  5  1  0  0  0
  3 19  1  0  0  0
 10 20  1  0  0  0
M  END
> <minimizedAffinity>
-6.95555

> <CNNscore>
0.5566287041

> <CNNaffinity>
5.8515324593

> <CNN_VS>
3.2571308613

> <CNNaffinity_variance>
0.4286330640

$$$$
[H]Oc1c(OC([H])([H])[H])c(OC([H])([H])[H])c2c3c1-c1c([H])c([H])c([H])c([H])c1C([H])([H])[C@@]3([H])N([H])C([H])([H])C2([H])[H]


 24 27  0  0  0  0  0  0  0  0999 V2000
    0.7450  -52.2174  -22.7941 C   0  0  0  0  0  0  0  0  0  0  0  0
    0.2669  -52.4073  -21.5047 C   0  0  0  0  0  0  0  0  0  0  0  0
   -0.4041  -53.5826  -21.2980 O   0  0  0  0  0  0  0  0  0  0  0  0
    0.5026  -51.4252  -20.5695 C   0  0  0  0  0  0  0  0  0  0  0  0
    1.1914  -50.2744  -20.8816 C   0  0  0  0  0  0  0  0  0  0  0  0
    1.6545  -50.1229  -22.1845 C   0  0  0  0  0  0  0  0  0  0  0  0
    1.4431  -51.0743  -23.1451 C   0  0  0  0  0  0  0  0  0  0  0  0
    2.3880  -48.8870  -22.5089 C   0  0  0  0  0  0  0  0  0  0  0  0
    3.1804  -48.3274  -21.3915 C   0  0  0  0  0  0  0  0  0  0  0  0
    2.6919  -48.5270  -20.0932 N   0  0  0  0  0  0  0  0  0  0  0  0
    1.4227  -49.1896  -19.9570 C   0  0  0  0  0  0  0  0  0  0  0  0
    1.2206  -49.5043  -18.5308 C   0  0  0  0  0  0  0  0  0  0  0  0
    0.3685  -50.6599  -18.2369 C   0  0  0  0  0  0  0  0  0  0  0  0
   -0.1130  -50.8213  -16.9249 C   0  0  0  0  0  0  0  0  0  0  0  0
   -0.8641  -51.8953  -16.5565 C   0  0  0  0  0  0  0  0  0  0  0  0
   -1.1383  -52.8239  -17.5176 C   0  0  0  0  0  0  0  0  0  0  0  0
   -0.6913  -52.7240  -18.8425 C   0  0  0  0  0  0  0  0  0  0  0  0
    0.0608  -51.6354  -19.1883 C   0  0  0  0  0  0  0  0  0  0  0  0
   -0.5681  -54.2880  -21.9841 H   0  0  0  0  0  0  0  0  0  0  0  0
    2.6237  -47.6315  -19.5338 H   0  0  0  0  0  0  0  0  0  0  0  0
   -0.5042  -53.1704  -24.6994 C   0  0  0  0  0  0  0  0  0  0  0  0
    0.5217  -53.1873  -23.7504 O   0  0  0  0  0  0  0  0  0  0  0  0
    1.9232  -50.8813  -24.4325 O   0  0  0  0  0  0  0  0  0  0  0  0
    3.1857  -51.3879  -24.7985 C   0  0  0  0  0  0  0  0  0  0  0  0
 21 22  1  0  0  0
 22  1  1  0  0  0
  1  2  2  0  0  0
  2  3  1  0  0  0
  2  4  1  0  0  0
  4  5  2  0  0  0
  5  6  1  0  0  0
  6  7  2  0  0  0
  7 23  1  0  0  0
 23 24  1  0  0  0
  6  8  1  0  0  0
  8  9  1  0  0  0
  9 10  1  0  0  0
 10 11  1  0  0  0
 11 12  1  0  0  0
 12 13  1  0  0  0
 13 14  2  0  0  0
 14 15  1  0  0  0
 15 16  2  0  0  0
 16 17  1  0  0  0
 17 18  2  0  0  0
  7  1  1  0  0  0
 18 13  1  0  0  0
 18  4  1  0  0  0
 11  5  1  0  0  0
  3 19  1  0  0  0
 10 20  1  0  0  0
M  END
> <minimizedAffinity>
-6.88572

> <CNNscore>
0.5271738172

> <CNNaffinity>
5.4317646027

> <CNN_VS>
2.8634841442

> <CNNaffinity_variance>
0.3125908673

$$$$
[H]Oc1c(OC([H])([H])[H])c(OC([H])([H])[H])c2c3c1-c1c([H])c([H])c([H])c([H])c1C([H])([H])[C@@]3([H])N([H])C([H])([H])C2([H])[H]


 24 27  0  0  0  0  0  0  0  0999 V2000
    0.0454  -52.6692  -22.2786 C   0  0  0  0  0  0  0  0  0  0  0  0
    0.0803  -53.0087  -23.6242 C   0  0  0  0  0  0  0  0  0  0  0  0
   -1.0767  -53.5463  -24.1209 O   0  0  0  0  0  0  0  0  0  0  0  0
    1.2428  -52.7813  -24.3253 C   0  0  0  0  0  0  0  0  0  0  0  0
    2.3563  -52.2333  -23.7286 C   0  0  0  0  0  0  0  0  0  0  0  0
    2.2801  -51.9062  -22.3786 C   0  0  0  0  0  0  0  0  0  0  0  0
    1.1444  -52.1148  -21.6443 C   0  0  0  0  0  0  0  0  0  0  0  0
    3.4776  -51.3230  -21.7490 C   0  0  0  0  0  0  0  0  0  0  0  0
    4.3041  -50.4878  -22.6485 C   0  0  0  0  0  0  0  0  0  0  0  0
    4.3304  -50.8360  -24.0058 N   0  0  0  0  0  0  0  0  0  0  0  0
    3.6167  -52.0207  -24.4002 C   0  0  0  0  0  0  0  0  0  0  0  0
    3.5770  -52.0627  -25.8735 C   0  0  0  0  0  0  0  0  0  0  0  0
    2.4433  -52.7738  -26.4709 C   0  0  0  0  0  0  0  0  0  0  0  0
    2.5102  -53.1173  -27.8335 C   0  0  0  0  0  0  0  0  0  0  0  0
    1.4784  -53.7291  -28.4773 C   0  0  0  0  0  0  0  0  0  0  0  0
    0.3603  -54.0020  -27.7449 C   0  0  0  0  0  0  0  0  0  0  0  0
    0.2281  -53.6881  -26.3851 C   0  0  0  0  0  0  0  0  0  0  0  0
    1.2787  -53.0747  -25.7605 C   0  0  0  0  0  0  0  0  0  0  0  0
   -1.9141  -53.7057  -23.6027 H   0  0  0  0  0  0  0  0  0  0  0  0
    5.3116  -50.9359  -24.3889 H   0  0  0  0  0  0  0  0  0  0  0  0
   -1.3705  -54.0103  -20.7636 C   0  0  0  0  0  0  0  0  0  0  0  0
   -1.1085  -52.8874  -21.5533 O   0  0  0  0  0  0  0  0  0  0  0  0
    1.1131  -51.7733  -20.2999 O   0  0  0  0  0  0  0  0  0  0  0  0
    0.5457  -50.5489  -19.8954 C   0  0  0  0  0  0  0  0  0  0  0  0
 21 22  1  0  0  0
 22  1  1  0  0  0
  1  2  2  0  0  0
  2  3  1  0  0  0
  2  4  1  0  0  0
  4  5  2  0  0  0
  5  6  1  0  0  0
  6  7  2  0  0  0
  7 23  1  0  0  0
 23 24  1  0  0  0
  6  8  1  0  0  0
  8  9  1  0  0  0
  9 10  1  0  0  0
 10 11  1  0  0  0
 11 12  1  0  0  0
 12 13  1  0  0  0
 13 14  2  0  0  0
 14 15  1  0  0  0
 15 16  2  0  0  0
 16 17  1  0  0  0
 17 18  2  0  0  0
  7  1  1  0  0  0
 18 13  1  0  0  0
 18  4  1  0  0  0
 11  5  1  0  0  0
  3 19  1  0  0  0
 10 20  1  0  0  0
M  END
> <minimizedAffinity>
-7.18829

> <CNNscore>
0.4760181606

> <CNNaffinity>
5.7543306351

> <CNN_VS>
2.7391657829

> <CNNaffinity_variance>
0.3891462684

$$$$
[H]Oc1c(OC([H])([H])[H])c(OC([H])([H])[H])c2c3c1-c1c([H])c([H])c([H])c([H])c1C([H])([H])[C@@]3([H])N([H])C([H])([H])C2([H])[H]


 24 27  0  0  0  0  0  0  0  0999 V2000
    1.1920  -53.1834  -25.0186 C   0  0  0  0  0  0  0  0  0  0  0  0
    0.7834  -52.8657  -23.7305 C   0  0  0  0  0  0  0  0  0  0  0  0
   -0.5360  -53.1107  -23.4594 O   0  0  0  0  0  0  0  0  0  0  0  0
    1.7142  -52.3466  -22.8594 C   0  0  0  0  0  0  0  0  0  0  0  0
    3.0228  -52.1375  -23.2335 C   0  0  0  0  0  0  0  0  0  0  0  0
    3.3922  -52.4697  -24.5329 C   0  0  0  0  0  0  0  0  0  0  0  0
    2.4995  -52.9887  -25.4308 C   0  0  0  0  0  0  0  0  0  0  0  0
    4.7938  -52.2397  -24.9240 C   0  0  0  0  0  0  0  0  0  0  0  0
    5.7760  -52.4056  -23.8296 C   0  0  0  0  0  0  0  0  0  0  0  0
    5.3535  -52.0858  -22.5322 N   0  0  0  0  0  0  0  0  0  0  0  0
    4.0279  -51.5489  -22.3801 C   0  0  0  0  0  0  0  0  0  0  0  0
    3.7104  -51.5127  -20.9406 C   0  0  0  0  0  0  0  0  0  0  0  0
    2.2908  -51.6025  -20.5881 C   0  0  0  0  0  0  0  0  0  0  0  0
    1.9023  -51.2624  -19.2795 C   0  0  0  0  0  0  0  0  0  0  0  0
    0.6130  -51.3709  -18.8558 C   0  0  0  0  0  0  0  0  0  0  0  0
   -0.3034  -51.8276  -19.7573 C   0  0  0  0  0  0  0  0  0  0  0  0
    0.0156  -52.1825  -21.0754 C   0  0  0  0  0  0  0  0  0  0  0  0
    1.3173  -52.0639  -21.4774 C   0  0  0  0  0  0  0  0  0  0  0  0
   -1.2015  -53.4884  -24.0993 H   0  0  0  0  0  0  0  0  0  0  0  0
    6.0064  -51.4165  -22.0369 H   0  0  0  0  0  0  0  0  0  0  0  0
    0.0809  -55.0645  -26.1699 C   0  0  0  0  0  0  0  0  0  0  0  0
    0.2778  -53.7052  -25.9114 O   0  0  0  0  0  0  0  0  0  0  0  0
    2.9119  -53.3058  -26.7171 O   0  0  0  0  0  0  0  0  0  0  0  0
    2.7396  -52.3775  -27.7628 C   0  0  0  0  0  0  0  0  0  0  0  0
 21 22  1  0  0  0
 22  1  1  0  0  0
  1  2  2  0  0  0
  2  3  1  0  0  0
  2  4  1  0  0  0
  4  5  2  0  0  0
  5  6  1  0  0  0
  6  7  2  0  0  0
  7 23  1  0  0  0
 23 24  1  0  0  0
  6  8  1  0  0  0
  8  9  1  0  0  0
  9 10  1  0  0  0
 10 11  1  0  0  0
 11 12  1  0  0  0
 12 13  1  0  0  0
 13 14  2  0  0  0
 14 15  1  0  0  0
 15 16  2  0  0  0
 16 17  1  0  0  0
 17 18  2  0  0  0
  7  1  1  0  0  0
 18 13  1  0  0  0
 18  4  1  0  0  0
 11  5  1  0  0  0
  3 19  1  0  0  0
 10 20  1  0  0  0
M  END
> <minimizedAffinity>
-7.37266

> <CNNscore>
0.4226021469

> <CNNaffinity>
5.5600905418

> <CNN_VS>
2.3497061729

> <CNNaffinity_variance>
0.2985210419

$$$$
[H]Oc1c(OC([H])([H])[H])c(OC([H])([H])[H])c2c3c1-c1c([H])c([H])c([H])c([H])c1C([H])([H])[C@@]3([H])N([H])C([H])([H])C2([H])[H]


 24 27  0  0  0  0  0  0  0  0999 V2000
    1.3812  -51.8230  -21.6256 C   0  0  0  0  0  0  0  0  0  0  0  0
    0.6823  -51.9723  -22.8157 C   0  0  0  0  0  0  0  0  0  0  0  0
   -0.6816  -51.9551  -22.6979 O   0  0  0  0  0  0  0  0  0  0  0  0
    1.4003  -52.1201  -23.9807 C   0  0  0  0  0  0  0  0  0  0  0  0
    2.7773  -52.1241  -23.9905 C   0  0  0  0  0  0  0  0  0  0  0  0
    3.4399  -51.9708  -22.7770 C   0  0  0  0  0  0  0  0  0  0  0  0
    2.7655  -51.8204  -21.5958 C   0  0  0  0  0  0  0  0  0  0  0  0
    4.9130  -51.9791  -22.7978 C   0  0  0  0  0  0  0  0  0  0  0  0
    5.5168  -51.4165  -24.0261 C   0  0  0  0  0  0  0  0  0  0  0  0
    4.8025  -51.5690  -25.2221 N   0  0  0  0  0  0  0  0  0  0  0  0
    3.5811  -52.3268  -25.1728 C   0  0  0  0  0  0  0  0  0  0  0  0
    2.8851  -52.1590  -26.4618 C   0  0  0  0  0  0  0  0  0  0  0  0
    1.4263  -52.2962  -26.4329 C   0  0  0  0  0  0  0  0  0  0  0  0
    0.7442  -52.4593  -27.6524 C   0  0  0  0  0  0  0  0  0  0  0  0
   -0.6134  -52.5389  -27.7174 C   0  0  0  0  0  0  0  0  0  0  0  0
   -1.3002  -52.4539  -26.5417 C   0  0  0  0  0  0  0  0  0  0  0  0
   -0.6836  -52.2925  -25.2932 C   0  0  0  0  0  0  0  0  0  0  0  0
    0.6813  -52.2161  -25.2539 C   0  0  0  0  0  0  0  0  0  0  0  0
   -1.1913  -51.8464  -21.8474 H   0  0  0  0  0  0  0  0  0  0  0  0
    5.3833  -51.9875  -26.0012 H   0  0  0  0  0  0  0  0  0  0  0  0
    0.3332  -52.7077  -19.5719 C   0  0  0  0  0  0  0  0  0  0  0  0
    0.6844  -51.6733  -20.4435 O   0  0  0  0  0  0  0  0  0  0  0  0
    3.4676  -51.6705  -20.4085 O   0  0  0  0  0  0  0  0  0  0  0  0
    3.7154  -50.3832  -19.8925 C   0  0  0  0  0  0  0  0  0  0  0  0
 21 22  1  0  0  0
 22  1  1  0  0  0
  1  2  2  0  0  0
  2  3  1  0  0  0
  2  4  1  0  0  0
  4  5  2  0  0  0
  5  6  1  0  0  0
  6  7  2  0  0  0
  7 23  1  0  0  0
 23 24  1  0  0  0
  6  8  1  0  0  0
  8  9  1  0  0  0
  9 10  1  0  0  0
 10 11  1  0  0  0
 11 12  1  0  0  0
 12 13  1  0  0  0
 13 14  2  0  0  0
 14 15  1  0  0  0
 15 16  2  0  0  0
 16 17  1  0  0  0
 17 18  2  0  0  0
  7  1  1  0  0  0
 18 13  1  0  0  0
 18  4  1  0  0  0
 11  5  1  0  0  0
  3 19  1  0  0  0
 10 20  1  0  0  0
M  END
> <minimizedAffinity>
-7.31480

> <CNNscore>
0.4184510708

> <CNNaffinity>
5.5865998268

> <CNN_VS>
2.3377187252

> <CNNaffinity_variance>
0.2697949708

$$$$
[H]Oc1c(OC([H])([H])[H])c(OC([H])([H])[H])c2c3c1-c1c([H])c([H])c([H])c([H])c1C([H])([H])[C@@]3([H])N([H])C([H])([H])C2([H])[H]


 24 27  0  0  0  0  0  0  0  0999 V2000
    0.0887  -53.3303  -25.7375 C   0  0  0  0  0  0  0  0  0  0  0  0
   -0.2900  -53.4679  -24.4090 C   0  0  0  0  0  0  0  0  0  0  0  0
   -1.1247  -54.5206  -24.1459 O   0  0  0  0  0  0  0  0  0  0  0  0
    0.1934  -52.5596  -23.4947 C   0  0  0  0  0  0  0  0  0  0  0  0
    1.0315  -51.5315  -23.8646 C   0  0  0  0  0  0  0  0  0  0  0  0
    1.3879  -51.4291  -25.2054 C   0  0  0  0  0  0  0  0  0  0  0  0
    0.9310  -52.3105  -26.1471 C   0  0  0  0  0  0  0  0  0  0  0  0
    2.2828  -50.3242  -25.5912 C   0  0  0  0  0  0  0  0  0  0  0  0
    3.2596  -49.9285  -24.5524 C   0  0  0  0  0  0  0  0  0  0  0  0
    2.8699  -50.0741  -23.2142 N   0  0  0  0  0  0  0  0  0  0  0  0
    1.5267  -50.5210  -22.9597 C   0  0  0  0  0  0  0  0  0  0  0  0
    1.4110  -50.8302  -21.5227 C   0  0  0  0  0  0  0  0  0  0  0  0
    0.4101  -51.8356  -21.1551 C   0  0  0  0  0  0  0  0  0  0  0  0
    0.0350  -51.9450  -19.8036 C   0  0  0  0  0  0  0  0  0  0  0  0
   -0.8462  -52.8884  -19.3710 C   0  0  0  0  0  0  0  0  0  0  0  0
   -1.3609  -53.7370  -20.3071 C   0  0  0  0  0  0  0  0  0  0  0  0
   -1.0311  -53.6822  -21.6684 C   0  0  0  0  0  0  0  0  0  0  0  0
   -0.1444  -52.7252  -22.0784 C   0  0  0  0  0  0  0  0  0  0  0  0
   -1.4681  -55.1735  -24.8174 H   0  0  0  0  0  0  0  0  0  0  0  0
    3.0050  -49.1925  -22.6449 H   0  0  0  0  0  0  0  0  0  0  0  0
    0.1573  -55.4914  -26.9306 C   0  0  0  0  0  0  0  0  0  0  0  0
   -0.3825  -54.2281  -26.6740 O   0  0  0  0  0  0  0  0  0  0  0  0
    1.3124  -52.1703  -27.4737 O   0  0  0  0  0  0  0  0  0  0  0  0
    2.4698  -52.8186  -27.9479 C   0  0  0  0  0  0  0  0  0  0  0  0
 21 22  1  0  0  0
 22  1  1  0  0  0
  1  2  2  0  0  0
  2  3  1  0  0  0
  2  4  1  0  0  0
  4  5  2  0  0  0
  5  6  1  0  0  0
  6  7  2  0  0  0
  7 23  1  0  0  0
 23 24  1  0  0  0
  6  8  1  0  0  0
  8  9  1  0  0  0
  9 10  1  0  0  0
 10 11  1  0  0  0
 11 12  1  0  0  0
 12 13  1  0  0  0
 13 14  2  0  0  0
 14 15  1  0  0  0
 15 16  2  0  0  0
 16 17  1  0  0  0
 17 18  2  0  0  0
  7  1  1  0  0  0
 18 13  1  0  0  0
 18  4  1  0  0  0
 11  5  1  0  0  0
  3 19  1  0  0  0
 10 20  1  0  0  0
M  END
> <minimizedAffinity>
-8.13847

> <CNNscore>
0.4082642198

> <CNNaffinity>
5.7413969040

> <CNN_VS>
2.3440070152

> <CNNaffinity_variance>
0.1299736202

$$$$
[H]Oc1c(OC([H])([H])[H])c(OC([H])([H])[H])c2c3c1-c1c([H])c([H])c([H])c([H])c1C([H])([H])[C@@]3([H])N([H])C([H])([H])C2([H])[H]


 24 27  0  0  0  0  0  0  0  0999 V2000
    0.0093  -53.3875  -21.6249 C   0  0  0  0  0  0  0  0  0  0  0  0
   -0.0790  -52.8894  -20.3322 C   0  0  0  0  0  0  0  0  0  0  0  0
   -0.6151  -53.7485  -19.4108 O   0  0  0  0  0  0  0  0  0  0  0  0
    0.3684  -51.6098  -20.0933 C   0  0  0  0  0  0  0  0  0  0  0  0
    0.8930  -50.8241  -21.0952 C   0  0  0  0  0  0  0  0  0  0  0  0
    0.9648  -51.3607  -22.3766 C   0  0  0  0  0  0  0  0  0  0  0  0
    0.5322  -52.6281  -22.6580 C   0  0  0  0  0  0  0  0  0  0  0  0
    1.5252  -50.5112  -23.4419 C   0  0  0  0  0  0  0  0  0  0  0  0
    2.5754  -49.5700  -22.9936 C   0  0  0  0  0  0  0  0  0  0  0  0
    2.4800  -49.0751  -21.6859 N   0  0  0  0  0  0  0  0  0  0  0  0
    1.3290  -49.4596  -20.9139 C   0  0  0  0  0  0  0  0  0  0  0  0
    1.5489  -49.0331  -19.5197 C   0  0  0  0  0  0  0  0  0  0  0  0
    0.8628  -49.8150  -18.4874 C   0  0  0  0  0  0  0  0  0  0  0  0
    0.7765  -49.2809  -17.1887 C   0  0  0  0  0  0  0  0  0  0  0  0
    0.2047  -49.9663  -16.1607 C   0  0  0  0  0  0  0  0  0  0  0  0
   -0.2892  -51.2076  -16.4370 C   0  0  0  0  0  0  0  0  0  0  0  0
   -0.2369  -51.7980  -17.7073 C   0  0  0  0  0  0  0  0  0  0  0  0
    0.3415  -51.0892  -18.7238 C   0  0  0  0  0  0  0  0  0  0  0  0
   -0.9355  -54.6749  -19.5958 H   0  0  0  0  0  0  0  0  0  0  0  0
    2.5342  -48.0196  -21.6374 H   0  0  0  0  0  0  0  0  0  0  0  0
   -1.5501  -54.9966  -22.6629 C   0  0  0  0  0  0  0  0  0  0  0  0
   -0.4328  -54.6678  -21.8906 O   0  0  0  0  0  0  0  0  0  0  0  0
    0.6229  -53.1228  -23.9511 O   0  0  0  0  0  0  0  0  0  0  0  0
   -0.2876  -52.6935  -24.9367 C   0  0  0  0  0  0  0  0  0  0  0  0
 21 22  1  0  0  0
 22  1  1  0  0  0
  1  2  2  0  0  0
  2  3  1  0  0  0
  2  4  1  0  0  0
  4  5  2  0  0  0
  5  6  1  0  0  0
  6  7  2  0  0  0
  7 23  1  0  0  0
 23 24  1  0  0  0
  6  8  1  0  0  0
  8  9  1  0  0  0
  9 10  1  0  0  0
 10 11  1  0  0  0
 11 12  1  0  0  0
 12 13  1  0  0  0
 13 14  2  0  0  0
 14 15  1  0  0  0
 15 16  2  0  0  0
 16 17  1  0  0  0
 17 18  2  0  0  0
  7  1  1  0  0  0
 18 13  1  0  0  0
 18  4  1  0  0  0
 11  5  1  0  0  0
  3 19  1  0  0  0
 10 20  1  0  0  0
M  END
> <minimizedAffinity>
-7.34121

> <CNNscore>
0.3868550360

> <CNNaffinity>
5.4711799622

> <CNN_VS>
2.1165535450

> <CNNaffinity_variance>
0.2843138576

$$$$
[H]Oc1c(OC([H])([H])[H])c(OC([H])([H])[H])c2c3c1-c1c([H])c([H])c([H])c([H])c1C([H])([H])[C@@]3([H])N([H])C([H])([H])C2([H])[H]


 24 27  0  0  0  0  0  0  0  0999 V2000
   -0.2543  -51.6688  -17.8766 C   0  0  0  0  0  0  0  0  0  0  0  0
   -0.5188  -52.4734  -18.9764 C   0  0  0  0  0  0  0  0  0  0  0  0
   -1.2912  -53.5747  -18.7218 O   0  0  0  0  0  0  0  0  0  0  0  0
    0.0028  -52.1050  -20.1958 C   0  0  0  0  0  0  0  0  0  0  0  0
    0.7715  -50.9723  -20.3454 C   0  0  0  0  0  0  0  0  0  0  0  0
    1.0127  -50.1926  -19.2189 C   0  0  0  0  0  0  0  0  0  0  0  0
    0.5131  -50.5215  -17.9881 C   0  0  0  0  0  0  0  0  0  0  0  0
    1.8384  -48.9844  -19.3890 C   0  0  0  0  0  0  0  0  0  0  0  0
    1.7060  -48.3261  -20.7077 C   0  0  0  0  0  0  0  0  0  0  0  0
    1.4355  -49.1459  -21.8117 N   0  0  0  0  0  0  0  0  0  0  0  0
    1.3865  -50.5657  -21.5869 C   0  0  0  0  0  0  0  0  0  0  0  0
    0.8599  -51.2049  -22.8068 C   0  0  0  0  0  0  0  0  0  0  0  0
    0.1631  -52.4807  -22.6202 C   0  0  0  0  0  0  0  0  0  0  0  0
   -0.0807  -53.2827  -23.7500 C   0  0  0  0  0  0  0  0  0  0  0  0
   -0.7692  -54.4546  -23.6709 C   0  0  0  0  0  0  0  0  0  0  0  0
   -1.2213  -54.8304  -22.4399 C   0  0  0  0  0  0  0  0  0  0  0  0
   -1.0125  -54.0799  -21.2745 C   0  0  0  0  0  0  0  0  0  0  0  0
   -0.3173  -52.9069  -21.3797 C   0  0  0  0  0  0  0  0  0  0  0  0
   -1.6647  -53.8312  -17.8331 H   0  0  0  0  0  0  0  0  0  0  0  0
    2.1060  -48.9929  -22.6156 H   0  0  0  0  0  0  0  0  0  0  0  0
   -1.9780  -51.5681  -16.1110 C   0  0  0  0  0  0  0  0  0  0  0  0
   -0.7657  -52.0164  -16.6425 O   0  0  0  0  0  0  0  0  0  0  0  0
    0.7790  -49.7144  -16.8914 O   0  0  0  0  0  0  0  0  0  0  0  0
    1.8141  -50.0549  -15.9985 C   0  0  0  0  0  0  0  0  0  0  0  0
 21 22  1  0  0  0
 22  1  1  0  0  0
  1  2  2  0  0  0
  2  3  1  0  0  0
  2  4  1  0  0  0
  4  5  2  0  0  0
  5  6  1  0  0  0
  6  7  2  0  0  0
  7 23  1  0  0  0
 23 24  1  0  0  0
  6  8  1  0  0  0
  8  9  1  0  0  0
  9 10  1  0  0  0
 10 11  1  0  0  0
 11 12  1  0  0  0
 12 13  1  0  0  0
 13 14  2  0  0  0
 14 15  1  0  0  0
 15 16  2  0  0  0
 16 17  1  0  0  0
 17 18  2  0  0  0
  7  1  1  0  0  0
 18 13  1  0  0  0
 18  4  1  0  0  0
 11  5  1  0  0  0
  3 19  1  0  0  0
 10 20  1  0  0  0
M  END
> <minimizedAffinity>
-7.76657

> <CNNscore>
0.3114027381

> <CNNaffinity>
5.1635446548

> <CNN_VS>
1.6079419851

> <CNNaffinity_variance>
0.1130625755

$$$$
[H]c1c([H])c([H])c(N([H])[C@@]2([H])c3c([H])c(-c4c([H])c([H])c(C(F)(F)F)c([H])c4[H])c([H])c([H])c3N(C(=O)C([H])([H])[H])[C@@]([H])(C([H])([H])[H])C2([H])[H])c([H])c1[H]


 32 35  0  0  0  0  0  0  0  0999 V2000
    3.3549  -51.7964  -27.3412 C   0  0  0  0  0  0  0  0  0  0  0  0
    4.3181  -51.2366  -26.3843 C   0  0  0  0  0  0  0  0  0  0  0  0
    5.4515  -50.8698  -26.8480 O   0  0  0  0  0  0  0  0  0  0  0  0
    4.0578  -51.0961  -25.0062 N   0  0  0  0  0  0  0  0  0  0  0  0
    2.8091  -51.2168  -24.3589 C   0  0  0  0  0  0  0  0  0  0  0  0
    1.6515  -50.8692  -25.0461 C   0  0  0  0  0  0  0  0  0  0  0  0
    0.4478  -51.0689  -24.4136 C   0  0  0  0  0  0  0  0  0  0  0  0
    0.3082  -51.5899  -23.1414 C   0  0  0  0  0  0  0  0  0  0  0  0
    1.4705  -51.9163  -22.4852 C   0  0  0  0  0  0  0  0  0  0  0  0
    2.7188  -51.7315  -23.0887 C   0  0  0  0  0  0  0  0  0  0  0  0
    3.8884  -52.0548  -22.2616 C   0  0  0  0  0  0  0  0  0  0  0  0
    5.1909  -51.9046  -22.9977 C   0  0  0  0  0  0  0  0  0  0  0  0
    5.1871  -50.8779  -24.0797 C   0  0  0  0  0  0  0  0  0  0  0  0
    5.2721  -49.4530  -23.6789 C   0  0  0  0  0  0  0  0  0  0  0  0
   -0.9998  -51.8199  -22.5190 C   0  0  0  0  0  0  0  0  0  0  0  0
   -1.4620  -53.1148  -22.3257 C   0  0  0  0  0  0  0  0  0  0  0  0
   -2.6555  -53.4000  -21.7008 C   0  0  0  0  0  0  0  0  0  0  0  0
   -3.4323  -52.3427  -21.2479 C   0  0  0  0  0  0  0  0  0  0  0  0
   -3.0072  -51.0441  -21.4249 C   0  0  0  0  0  0  0  0  0  0  0  0
   -1.7894  -50.7982  -22.0626 C   0  0  0  0  0  0  0  0  0  0  0  0
   -4.7284  -52.6784  -20.5563 C   0  0  0  0  0  0  0  0  0  0  0  0
   -4.7370  -54.0133  -20.1872 F   0  0  0  0  0  0  0  0  0  0  0  0
   -5.8140  -52.4499  -21.3467 F   0  0  0  0  0  0  0  0  0  0  0  0
   -4.7448  -51.9598  -19.3639 F   0  0  0  0  0  0  0  0  0  0  0  0
    3.8772  -51.1378  -21.1035 N   0  0  0  0  0  0  0  0  0  0  0  0
    3.6329  -51.5594  -20.1804 H   0  0  0  0  0  0  0  0  0  0  0  0
    4.1799  -49.7560  -21.2628 C   0  0  0  0  0  0  0  0  0  0  0  0
    5.4466  -49.3632  -21.6644 C   0  0  0  0  0  0  0  0  0  0  0  0
    5.6817  -48.0247  -21.8646 C   0  0  0  0  0  0  0  0  0  0  0  0
    4.7362  -47.0459  -21.6887 C   0  0  0  0  0  0  0  0  0  0  0  0
    3.4623  -47.4237  -21.2846 C   0  0  0  0  0  0  0  0  0  0  0  0
    3.2120  -48.7631  -21.0814 C   0  0  0  0  0  0  0  0  0  0  0  0
  1  2  1  0  0  0
  2  3  2  0  0  0
  2  4  1  0  0  0
  4  5  1  0  0  0
  5  6  2  0  0  0
  6  7  1  0  0  0
  7  8  2  0  0  0
  8 15  1  0  0  0
 15 16  2  0  0  0
 16 17  1  0  0  0
 17 18  2  0  0  0
 18 21  1  0  0  0
 21 22  1  0  0  0
 21 23  1  0  0  0
 21 24  1  0  0  0
 18 19  1  0  0  0
 19 20  2  0  0  0
  8  9  1  0  0  0
  9 10  2  0  0  0
 10 11  1  0  0  0
 11 25  1  0  0  0
 25 27  1  0  0  0
 27 28  2  0  0  0
 28 29  1  0  0  0
 29 30  2  0  0  0
 30 31  1  0  0  0
 31 32  2  0  0  0
 11 12  1  0  0  0
 12 13  1  0  0  0
 13 14  1  0  0  0
 13  4  1  0  0  0
 10  5  1  0  0  0
 32 27  1  0  0  0
 20 15  1  0  0  0
 25 26  1  0  0  0
M  END
> <minimizedAffinity>
19.67599

> <CNNscore>
0.4442689419

> <CNNaffinity>
6.1005353928

> <CNN_VS>
2.7102785110

> <CNNaffinity_variance>
2.0654029846

$$$$
[H]c1c([H])c([H])c(N([H])[C@@]2([H])c3c([H])c(-c4c([H])c([H])c(C(F)(F)F)c([H])c4[H])c([H])c([H])c3N(C(=O)C([H])([H])[H])[C@@]([H])(C([H])([H])[H])C2([H])[H])c([H])c1[H]


 32 35  0  0  0  0  0  0  0  0999 V2000
   -2.7885  -54.0849  -22.9838 C   0  0  0  0  0  0  0  0  0  0  0  0
   -2.1279  -54.0594  -21.6724 C   0  0  0  0  0  0  0  0  0  0  0  0
   -2.6491  -54.7686  -20.7454 O   0  0  0  0  0  0  0  0  0  0  0  0
   -0.9748  -53.2981  -21.3938 N   0  0  0  0  0  0  0  0  0  0  0  0
   -0.1326  -52.6557  -22.3269 C   0  0  0  0  0  0  0  0  0  0  0  0
    0.0185  -53.2042  -23.5956 C   0  0  0  0  0  0  0  0  0  0  0  0
    0.7859  -52.5144  -24.5034 C   0  0  0  0  0  0  0  0  0  0  0  0
    1.4190  -51.3142  -24.2424 C   0  0  0  0  0  0  0  0  0  0  0  0
    1.2572  -50.8018  -22.9777 C   0  0  0  0  0  0  0  0  0  0  0  0
    0.4849  -51.4677  -22.0203 C   0  0  0  0  0  0  0  0  0  0  0  0
    0.4428  -50.8546  -20.6865 C   0  0  0  0  0  0  0  0  0  0  0  0
   -0.4639  -51.5809  -19.7320 C   0  0  0  0  0  0  0  0  0  0  0  0
   -0.6037  -53.0439  -19.9870 C   0  0  0  0  0  0  0  0  0  0  0  0
    0.5114  -53.9267  -19.5683 C   0  0  0  0  0  0  0  0  0  0  0  0
    2.1993  -50.5940  -25.2542 C   0  0  0  0  0  0  0  0  0  0  0  0
    2.7320  -51.2765  -26.3398 C   0  0  0  0  0  0  0  0  0  0  0  0
    3.4282  -50.6518  -27.3503 C   0  0  0  0  0  0  0  0  0  0  0  0
    3.6080  -49.2776  -27.2762 C   0  0  0  0  0  0  0  0  0  0  0  0
    3.0960  -48.5676  -26.2121 C   0  0  0  0  0  0  0  0  0  0  0  0
    2.3947  -49.2394  -25.2085 C   0  0  0  0  0  0  0  0  0  0  0  0
    4.3623  -48.6133  -28.3989 C   0  0  0  0  0  0  0  0  0  0  0  0
    3.7955  -48.9520  -29.6164 F   0  0  0  0  0  0  0  0  0  0  0  0
    5.6757  -48.9735  -28.4277 F   0  0  0  0  0  0  0  0  0  0  0  0
    4.1622  -47.2424  -28.2608 F   0  0  0  0  0  0  0  0  0  0  0  0
    1.8198  -50.8665  -20.1516 N   0  0  0  0  0  0  0  0  0  0  0  0
    1.9242  -50.6555  -19.1348 H   0  0  0  0  0  0  0  0  0  0  0  0
    2.9299  -51.1463  -20.9977 C   0  0  0  0  0  0  0  0  0  0  0  0
    4.1577  -50.5520  -20.7537 C   0  0  0  0  0  0  0  0  0  0  0  0
    5.2188  -50.8937  -21.5563 C   0  0  0  0  0  0  0  0  0  0  0  0
    5.1387  -51.7902  -22.5920 C   0  0  0  0  0  0  0  0  0  0  0  0
    3.9144  -52.3930  -22.8501 C   0  0  0  0  0  0  0  0  0  0  0  0
    2.8418  -52.0606  -22.0522 C   0  0  0  0  0  0  0  0  0  0  0  0
  1  2  1  0  0  0
  2  3  2  0  0  0
  2  4  1  0  0  0
  4  5  1  0  0  0
  5  6  2  0  0  0
  6  7  1  0  0  0
  7  8  2  0  0  0
  8 15  1  0  0  0
 15 16  2  0  0  0
 16 17  1  0  0  0
 17 18  2  0  0  0
 18 21  1  0  0  0
 21 22  1  0  0  0
 21 23  1  0  0  0
 21 24  1  0  0  0
 18 19  1  0  0  0
 19 20  2  0  0  0
  8  9  1  0  0  0
  9 10  2  0  0  0
 10 11  1  0  0  0
 11 25  1  0  0  0
 25 27  1  0  0  0
 27 28  2  0  0  0
 28 29  1  0  0  0
 29 30  2  0  0  0
 30 31  1  0  0  0
 31 32  2  0  0  0
 11 12  1  0  0  0
 12 13  1  0  0  0
 13 14  1  0  0  0
 13  4  1  0  0  0
 10  5  1  0  0  0
 32 27  1  0  0  0
 20 15  1  0  0  0
 25 26  1  0  0  0
M  END
> <minimizedAffinity>
-2.34243

> <CNNscore>
0.3892924786

> <CNNaffinity>
6.1584930420

> <CNN_VS>
2.3974549770

> <CNNaffinity_variance>
0.7085197568

$$$$
[H]c1c([H])c([H])c(N([H])[C@@]2([H])c3c([H])c(-c4c([H])c([H])c(C(F)(F)F)c([H])c4[H])c([H])c([H])c3N(C(=O)C([H])([H])[H])[C@@]([H])(C([H])([H])[H])C2([H])[H])c([H])c1[H]


 32 35  0  0  0  0  0  0  0  0999 V2000
    2.0059  -53.5717  -28.5138 C   0  0  0  0  0  0  0  0  0  0  0  0
    0.7593  -54.0001  -27.8663 C   0  0  0  0  0  0  0  0  0  0  0  0
    0.1014  -54.9371  -28.4348 O   0  0  0  0  0  0  0  0  0  0  0  0
    0.2622  -53.4312  -26.6764 N   0  0  0  0  0  0  0  0  0  0  0  0
    0.9494  -52.5731  -25.7908 C   0  0  0  0  0  0  0  0  0  0  0  0
    2.3276  -52.6979  -25.6569 C   0  0  0  0  0  0  0  0  0  0  0  0
    2.9753  -51.7989  -24.8438 C   0  0  0  0  0  0  0  0  0  0  0  0
    2.3515  -50.7804  -24.1489 C   0  0  0  0  0  0  0  0  0  0  0  0
    0.9885  -50.6878  -24.2954 C   0  0  0  0  0  0  0  0  0  0  0  0
    0.2861  -51.5797  -25.1127 C   0  0  0  0  0  0  0  0  0  0  0  0
   -1.1735  -51.4203  -25.1350 C   0  0  0  0  0  0  0  0  0  0  0  0
   -1.8550  -52.3610  -26.0897 C   0  0  0  0  0  0  0  0  0  0  0  0
   -1.1498  -53.6574  -26.3064 C   0  0  0  0  0  0  0  0  0  0  0  0
   -1.2580  -54.6873  -25.2454 C   0  0  0  0  0  0  0  0  0  0  0  0
    3.0883  -49.8203  -23.3202 C   0  0  0  0  0  0  0  0  0  0  0  0
    2.6701  -48.4983  -23.2459 C   0  0  0  0  0  0  0  0  0  0  0  0
    3.2852  -47.5608  -22.4467 C   0  0  0  0  0  0  0  0  0  0  0  0
    4.3754  -47.9565  -21.6844 C   0  0  0  0  0  0  0  0  0  0  0  0
    4.8205  -49.2596  -21.7348 C   0  0  0  0  0  0  0  0  0  0  0  0
    4.1675  -50.1798  -22.5577 C   0  0  0  0  0  0  0  0  0  0  0  0
    5.0253  -46.9172  -20.8080 C   0  0  0  0  0  0  0  0  0  0  0  0
    6.1144  -46.3619  -21.4591 F   0  0  0  0  0  0  0  0  0  0  0  0
    5.4569  -47.4321  -19.6231 F   0  0  0  0  0  0  0  0  0  0  0  0
    4.1062  -45.8813  -20.6650 F   0  0  0  0  0  0  0  0  0  0  0  0
   -1.6665  -51.6770  -23.7662 N   0  0  0  0  0  0  0  0  0  0  0  0
   -2.6725  -51.4632  -23.5878 H   0  0  0  0  0  0  0  0  0  0  0  0
   -0.7966  -52.1824  -22.7591 C   0  0  0  0  0  0  0  0  0  0  0  0
   -0.7950  -53.5346  -22.4559 C   0  0  0  0  0  0  0  0  0  0  0  0
    0.1010  -53.9923  -21.5206 C   0  0  0  0  0  0  0  0  0  0  0  0
    0.9984  -53.1898  -20.8622 C   0  0  0  0  0  0  0  0  0  0  0  0
    1.0078  -51.8320  -21.1540 C   0  0  0  0  0  0  0  0  0  0  0  0
    0.1154  -51.3593  -22.0911 C   0  0  0  0  0  0  0  0  0  0  0  0
  1  2  1  0  0  0
  2  3  2  0  0  0
  2  4  1  0  0  0
  4  5  1  0  0  0
  5  6  2  0  0  0
  6  7  1  0  0  0
  7  8  2  0  0  0
  8 15  1  0  0  0
 15 16  2  0  0  0
 16 17  1  0  0  0
 17 18  2  0  0  0
 18 21  1  0  0  0
 21 22  1  0  0  0
 21 23  1  0  0  0
 21 24  1  0  0  0
 18 19  1  0  0  0
 19 20  2  0  0  0
  8  9  1  0  0  0
  9 10  2  0  0  0
 10 11  1  0  0  0
 11 25  1  0  0  0
 25 27  1  0  0  0
 27 28  2  0  0  0
 28 29  1  0  0  0
 29 30  2  0  0  0
 30 31  1  0  0  0
 31 32  2  0  0  0
 11 12  1  0  0  0
 12 13  1  0  0  0
 13 14  1  0  0  0
 13  4  1  0  0  0
 10  5  1  0  0  0
 32 27  1  0  0  0
 20 15  1  0  0  0
 25 26  1  0  0  0
M  END
> <minimizedAffinity>
-2.61171

> <CNNscore>
0.3521846533

> <CNNaffinity>
6.3862142563

> <CNN_VS>
2.2491266727

> <CNNaffinity_variance>
0.6671084762

$$$$
[H]c1c([H])c([H])c(N([H])[C@@]2([H])c3c([H])c(-c4c([H])c([H])c(C(F)(F)F)c([H])c4[H])c([H])c([H])c3N(C(=O)C([H])([H])[H])[C@@]([H])(C([H])([H])[H])C2([H])[H])c([H])c1[H]


 32 35  0  0  0  0  0  0  0  0999 V2000
   -1.1733  -49.0113  -20.8487 C   0  0  0  0  0  0  0  0  0  0  0  0
    0.0728  -49.1540  -20.0849 C   0  0  0  0  0  0  0  0  0  0  0  0
    0.0627  -48.7435  -18.8744 O   0  0  0  0  0  0  0  0  0  0  0  0
    1.2563  -49.7041  -20.6175 N   0  0  0  0  0  0  0  0  0  0  0  0
    1.3944  -50.4167  -21.8282 C   0  0  0  0  0  0  0  0  0  0  0  0
    0.3272  -51.1760  -22.2949 C   0  0  0  0  0  0  0  0  0  0  0  0
    0.4682  -51.7968  -23.5129 C   0  0  0  0  0  0  0  0  0  0  0  0
    1.5976  -51.7200  -24.3053 C   0  0  0  0  0  0  0  0  0  0  0  0
    2.6378  -50.9689  -23.8134 C   0  0  0  0  0  0  0  0  0  0  0  0
    2.5403  -50.3181  -22.5791 C   0  0  0  0  0  0  0  0  0  0  0  0
    3.7418  -49.6022  -22.1316 C   0  0  0  0  0  0  0  0  0  0  0  0
    3.5412  -48.8657  -20.8362 C   0  0  0  0  0  0  0  0  0  0  0  0
    2.5356  -49.4725  -19.9167 C   0  0  0  0  0  0  0  0  0  0  0  0
    2.9404  -50.6740  -19.1480 C   0  0  0  0  0  0  0  0  0  0  0  0
    1.6905  -52.3703  -25.6168 C   0  0  0  0  0  0  0  0  0  0  0  0
    2.9097  -52.4354  -26.2779 C   0  0  0  0  0  0  0  0  0  0  0  0
    3.0751  -53.0766  -27.4852 C   0  0  0  0  0  0  0  0  0  0  0  0
    1.9702  -53.6814  -28.0681 C   0  0  0  0  0  0  0  0  0  0  0  0
    0.7434  -53.6346  -27.4424 C   0  0  0  0  0  0  0  0  0  0  0  0
    0.6188  -52.9749  -26.2178 C   0  0  0  0  0  0  0  0  0  0  0  0
    2.1768  -54.3877  -29.3830 C   0  0  0  0  0  0  0  0  0  0  0  0
    3.3448  -53.9442  -29.9809 F   0  0  0  0  0  0  0  0  0  0  0  0
    1.1494  -54.1787  -30.2527 F   0  0  0  0  0  0  0  0  0  0  0  0
    2.3937  -55.7308  -29.0874 F   0  0  0  0  0  0  0  0  0  0  0  0
    4.8139  -50.6039  -21.9591 N   0  0  0  0  0  0  0  0  0  0  0  0
    5.2490  -50.6591  -21.0119 H   0  0  0  0  0  0  0  0  0  0  0  0
    5.2198  -51.4334  -23.0423 C   0  0  0  0  0  0  0  0  0  0  0  0
    5.6501  -50.8649  -24.2305 C   0  0  0  0  0  0  0  0  0  0  0  0
    6.0900  -51.6976  -25.2305 C   0  0  0  0  0  0  0  0  0  0  0  0
    6.1285  -53.0654  -25.1271 C   0  0  0  0  0  0  0  0  0  0  0  0
    5.6990  -53.6502  -23.9429 C   0  0  0  0  0  0  0  0  0  0  0  0
    5.2563  -52.8269  -22.9310 C   0  0  0  0  0  0  0  0  0  0  0  0
  1  2  1  0  0  0
  2  3  2  0  0  0
  2  4  1  0  0  0
  4  5  1  0  0  0
  5  6  2  0  0  0
  6  7  1  0  0  0
  7  8  2  0  0  0
  8 15  1  0  0  0
 15 16  2  0  0  0
 16 17  1  0  0  0
 17 18  2  0  0  0
 18 21  1  0  0  0
 21 22  1  0  0  0
 21 23  1  0  0  0
 21 24  1  0  0  0
 18 19  1  0  0  0
 19 20  2  0  0  0
  8  9  1  0  0  0
  9 10  2  0  0  0
 10 11  1  0  0  0
 11 25  1  0  0  0
 25 27  1  0  0  0
 27 28  2  0  0  0
 28 29  1  0  0  0
 29 30  2  0  0  0
 30 31  1  0  0  0
 31 32  2  0  0  0
 11 12  1  0  0  0
 12 13  1  0  0  0
 13 14  1  0  0  0
 13  4  1  0  0  0
 10  5  1  0  0  0
 32 27  1  0  0  0
 20 15  1  0  0  0
 25 26  1  0  0  0
M  END
> <minimizedAffinity>
5.92577

> <CNNscore>
0.3253039420

> <CNNaffinity>
5.9621400833

> <CNN_VS>
1.9395077229

> <CNNaffinity_variance>
1.4558618069

$$$$
[H]c1c([H])c([H])c(N([H])[C@@]2([H])c3c([H])c(-c4c([H])c([H])c(C(F)(F)F)c([H])c4[H])c([H])c([H])c3N(C(=O)C([H])([H])[H])[C@@]([H])(C([H])([H])[H])C2([H])[H])c([H])c1[H]


 32 35  0  0  0  0  0  0  0  0999 V2000
    0.9323  -52.7263  -28.2593 C   0  0  0  0  0  0  0  0  0  0  0  0
    0.4657  -53.7866  -27.3567 C   0  0  0  0  0  0  0  0  0  0  0  0
   -0.0436  -54.8272  -27.8970 O   0  0  0  0  0  0  0  0  0  0  0  0
    0.5450  -53.7068  -25.9517 N   0  0  0  0  0  0  0  0  0  0  0  0
    1.2759  -52.7680  -25.1921 C   0  0  0  0  0  0  0  0  0  0  0  0
    2.4524  -52.2411  -25.7131 C   0  0  0  0  0  0  0  0  0  0  0  0
    3.0998  -51.2747  -24.9811 C   0  0  0  0  0  0  0  0  0  0  0  0
    2.6635  -50.7915  -23.7623 C   0  0  0  0  0  0  0  0  0  0  0  0
    1.5025  -51.3373  -23.2701 C   0  0  0  0  0  0  0  0  0  0  0  0
    0.8083  -52.3228  -23.9797 C   0  0  0  0  0  0  0  0  0  0  0  0
   -0.3813  -52.8750  -23.3191 C   0  0  0  0  0  0  0  0  0  0  0  0
   -1.1184  -53.8725  -24.1692 C   0  0  0  0  0  0  0  0  0  0  0  0
   -0.2669  -54.6292  -25.1322 C   0  0  0  0  0  0  0  0  0  0  0  0
    0.5673  -55.7317  -24.5968 C   0  0  0  0  0  0  0  0  0  0  0  0
    3.3680  -49.7322  -23.0323 C   0  0  0  0  0  0  0  0  0  0  0  0
    2.7029  -48.9914  -22.0644 C   0  0  0  0  0  0  0  0  0  0  0  0
    3.3197  -48.0203  -21.3077 C   0  0  0  0  0  0  0  0  0  0  0  0
    4.6669  -47.7692  -21.5272 C   0  0  0  0  0  0  0  0  0  0  0  0
    5.3588  -48.4826  -22.4816 C   0  0  0  0  0  0  0  0  0  0  0  0
    4.6960  -49.4602  -23.2267 C   0  0  0  0  0  0  0  0  0  0  0  0
    5.3242  -46.7109  -20.6795 C   0  0  0  0  0  0  0  0  0  0  0  0
    4.3600  -45.9396  -20.0521 F   0  0  0  0  0  0  0  0  0  0  0  0
    6.1221  -45.8819  -21.4086 F   0  0  0  0  0  0  0  0  0  0  0  0
    5.9960  -47.3756  -19.6571 F   0  0  0  0  0  0  0  0  0  0  0  0
    0.0702  -53.5357  -22.0773 N   0  0  0  0  0  0  0  0  0  0  0  0
    0.4686  -54.4949  -22.1807 H   0  0  0  0  0  0  0  0  0  0  0  0
   -0.0480  -52.8829  -20.8178 C   0  0  0  0  0  0  0  0  0  0  0  0
    0.6495  -51.7107  -20.5738 C   0  0  0  0  0  0  0  0  0  0  0  0
    0.4624  -51.0791  -19.3683 C   0  0  0  0  0  0  0  0  0  0  0  0
   -0.3750  -51.5398  -18.3838 C   0  0  0  0  0  0  0  0  0  0  0  0
   -1.0797  -52.7145  -18.6128 C   0  0  0  0  0  0  0  0  0  0  0  0
   -0.9028  -53.3577  -19.8181 C   0  0  0  0  0  0  0  0  0  0  0  0
  1  2  1  0  0  0
  2  3  2  0  0  0
  2  4  1  0  0  0
  4  5  1  0  0  0
  5  6  2  0  0  0
  6  7  1  0  0  0
  7  8  2  0  0  0
  8 15  1  0  0  0
 15 16  2  0  0  0
 16 17  1  0  0  0
 17 18  2  0  0  0
 18 21  1  0  0  0
 21 22  1  0  0  0
 21 23  1  0  0  0
 21 24  1  0  0  0
 18 19  1  0  0  0
 19 20  2  0  0  0
  8  9  1  0  0  0
  9 10  2  0  0  0
 10 11  1  0  0  0
 11 25  1  0  0  0
 25 27  1  0  0  0
 27 28  2  0  0  0
 28 29  1  0  0  0
 29 30  2  0  0  0
 30 31  1  0  0  0
 31 32  2  0  0  0
 11 12  1  0  0  0
 12 13  1  0  0  0
 13 14  1  0  0  0
 13  4  1  0  0  0
 10  5  1  0  0  0
 32 27  1  0  0  0
 20 15  1  0  0  0
 25 26  1  0  0  0
M  END
> <minimizedAffinity>
-5.35402

> <CNNscore>
0.3026544452

> <CNNaffinity>
6.4067754745

> <CNN_VS>
1.9390391111

> <CNNaffinity_variance>
0.6233210564

$$$$
[H]c1c([H])c([H])c(N([H])[C@@]2([H])c3c([H])c(-c4c([H])c([H])c(C(F)(F)F)c([H])c4[H])c([H])c([H])c3N(C(=O)C([H])([H])[H])[C@@]([H])(C([H])([H])[H])C2([H])[H])c([H])c1[H]


 32 35  0  0  0  0  0  0  0  0999 V2000
   -0.6773  -55.9480  -24.5002 C   0  0  0  0  0  0  0  0  0  0  0  0
   -0.1982  -54.8048  -25.2879 C   0  0  0  0  0  0  0  0  0  0  0  0
   -0.2036  -54.9324  -26.5598 O   0  0  0  0  0  0  0  0  0  0  0  0
    0.2648  -53.6023  -24.7166 N   0  0  0  0  0  0  0  0  0  0  0  0
    0.1260  -53.1885  -23.3741 C   0  0  0  0  0  0  0  0  0  0  0  0
   -0.9844  -53.6026  -22.6471 C   0  0  0  0  0  0  0  0  0  0  0  0
   -1.0515  -53.2441  -21.3220 C   0  0  0  0  0  0  0  0  0  0  0  0
   -0.0925  -52.4994  -20.6624 C   0  0  0  0  0  0  0  0  0  0  0  0
    0.9888  -52.0985  -21.4095 C   0  0  0  0  0  0  0  0  0  0  0  0
    1.1010  -52.4398  -22.7614 C   0  0  0  0  0  0  0  0  0  0  0  0
    2.2679  -51.8965  -23.4683 C   0  0  0  0  0  0  0  0  0  0  0  0
    2.3642  -52.3643  -24.8940 C   0  0  0  0  0  0  0  0  0  0  0  0
    1.0577  -52.6713  -25.5449 C   0  0  0  0  0  0  0  0  0  0  0  0
    0.2268  -51.5294  -25.9965 C   0  0  0  0  0  0  0  0  0  0  0  0
   -0.1879  -52.1705  -19.2362 C   0  0  0  0  0  0  0  0  0  0  0  0
    0.4957  -51.0749  -18.7261 C   0  0  0  0  0  0  0  0  0  0  0  0
    0.4066  -50.6816  -17.4094 C   0  0  0  0  0  0  0  0  0  0  0  0
   -0.4008  -51.4182  -16.5539 C   0  0  0  0  0  0  0  0  0  0  0  0
   -1.0920  -52.5135  -17.0241 C   0  0  0  0  0  0  0  0  0  0  0  0
   -0.9751  -52.8780  -18.3672 C   0  0  0  0  0  0  0  0  0  0  0  0
   -0.4930  -50.9627  -15.1205 C   0  0  0  0  0  0  0  0  0  0  0  0
    0.6345  -50.2331  -14.7815 F   0  0  0  0  0  0  0  0  0  0  0  0
   -0.6016  -52.0045  -14.2497 F   0  0  0  0  0  0  0  0  0  0  0  0
   -1.5548  -50.0648  -15.0522 F   0  0  0  0  0  0  0  0  0  0  0  0
    2.1502  -50.4240  -23.4478 N   0  0  0  0  0  0  0  0  0  0  0  0
    1.7803  -49.9762  -24.3151 H   0  0  0  0  0  0  0  0  0  0  0  0
    2.5332  -49.6764  -22.2986 C   0  0  0  0  0  0  0  0  0  0  0  0
    1.6554  -48.7612  -21.7399 C   0  0  0  0  0  0  0  0  0  0  0  0
    2.0391  -48.1034  -20.5967 C   0  0  0  0  0  0  0  0  0  0  0  0
    3.2449  -48.2950  -19.9704 C   0  0  0  0  0  0  0  0  0  0  0  0
    4.1361  -49.2078  -20.5194 C   0  0  0  0  0  0  0  0  0  0  0  0
    3.7638  -49.8758  -21.6652 C   0  0  0  0  0  0  0  0  0  0  0  0
  1  2  1  0  0  0
  2  3  2  0  0  0
  2  4  1  0  0  0
  4  5  1  0  0  0
  5  6  2  0  0  0
  6  7  1  0  0  0
  7  8  2  0  0  0
  8 15  1  0  0  0
 15 16  2  0  0  0
 16 17  1  0  0  0
 17 18  2  0  0  0
 18 21  1  0  0  0
 21 22  1  0  0  0
 21 23  1  0  0  0
 21 24  1  0  0  0
 18 19  1  0  0  0
 19 20  2  0  0  0
  8  9  1  0  0  0
  9 10  2  0  0  0
 10 11  1  0  0  0
 11 25  1  0  0  0
 25 27  1  0  0  0
 27 28  2  0  0  0
 28 29  1  0  0  0
 29 30  2  0  0  0
 30 31  1  0  0  0
 31 32  2  0  0  0
 11 12  1  0  0  0
 12 13  1  0  0  0
 13 14  1  0  0  0
 13  4  1  0  0  0
 10  5  1  0  0  0
 32 27  1  0  0  0
 20 15  1  0  0  0
 25 26  1  0  0  0
M  END
> <minimizedAffinity>
-8.70641

> <CNNscore>
0.3025767207

> <CNNaffinity>
6.5550928116

> <CNN_VS>
1.9834184647

> <CNNaffinity_variance>
0.1286591142

$$$$
[H]c1c([H])c([H])c(N([H])[C@@]2([H])c3c([H])c(-c4c([H])c([H])c(C(F)(F)F)c([H])c4[H])c([H])c([H])c3N(C(=O)C([H])([H])[H])[C@@]([H])(C([H])([H])[H])C2([H])[H])c([H])c1[H]


 32 35  0  0  0  0  0  0  0  0999 V2000
    0.0702  -54.6935  -26.2590 C   0  0  0  0  0  0  0  0  0  0  0  0
    1.0369  -53.6684  -26.6731 C   0  0  0  0  0  0  0  0  0  0  0  0
    1.3225  -53.6081  -27.9176 O   0  0  0  0  0  0  0  0  0  0  0  0
    1.6566  -52.7729  -25.7783 N   0  0  0  0  0  0  0  0  0  0  0  0
    1.3001  -52.5287  -24.4344 C   0  0  0  0  0  0  0  0  0  0  0  0
   -0.0298  -52.6587  -24.0502 C   0  0  0  0  0  0  0  0  0  0  0  0
   -0.3311  -52.4871  -22.7203 C   0  0  0  0  0  0  0  0  0  0  0  0
    0.5957  -52.1927  -21.7387 C   0  0  0  0  0  0  0  0  0  0  0  0
    1.9001  -52.0628  -22.1508 C   0  0  0  0  0  0  0  0  0  0  0  0
    2.2549  -52.2293  -23.4935 C   0  0  0  0  0  0  0  0  0  0  0  0
    3.6681  -51.9993  -23.8198 C   0  0  0  0  0  0  0  0  0  0  0  0
    3.9916  -52.2687  -25.2632 C   0  0  0  0  0  0  0  0  0  0  0  0
    2.8642  -52.0422  -26.2134 C   0  0  0  0  0  0  0  0  0  0  0  0
    2.5330  -50.6416  -26.5695 C   0  0  0  0  0  0  0  0  0  0  0  0
    0.2339  -52.0537  -20.3241 C   0  0  0  0  0  0  0  0  0  0  0  0
    0.5991  -50.9142  -19.6197 C   0  0  0  0  0  0  0  0  0  0  0  0
    0.2457  -50.6987  -18.3064 C   0  0  0  0  0  0  0  0  0  0  0  0
   -0.5064  -51.6682  -17.6577 C   0  0  0  0  0  0  0  0  0  0  0  0
   -0.8846  -52.8134  -18.3241 C   0  0  0  0  0  0  0  0  0  0  0  0
   -0.5065  -52.9926  -19.6564 C   0  0  0  0  0  0  0  0  0  0  0  0
   -0.8920  -51.4059  -16.2248 C   0  0  0  0  0  0  0  0  0  0  0  0
   -0.2206  -52.2797  -15.3857 F   0  0  0  0  0  0  0  0  0  0  0  0
   -2.2289  -51.5551  -16.0104 F   0  0  0  0  0  0  0  0  0  0  0  0
   -0.4135  -50.1380  -15.9061 F   0  0  0  0  0  0  0  0  0  0  0  0
    3.9681  -50.5861  -23.5110 N   0  0  0  0  0  0  0  0  0  0  0  0
    4.1796  -49.9682  -24.3252 H   0  0  0  0  0  0  0  0  0  0  0  0
    3.9698  -50.1163  -22.1672 C   0  0  0  0  0  0  0  0  0  0  0  0
    3.2853  -48.9583  -21.8344 C   0  0  0  0  0  0  0  0  0  0  0  0
    3.2610  -48.5707  -20.5168 C   0  0  0  0  0  0  0  0  0  0  0  0
    3.8774  -49.2610  -19.5035 C   0  0  0  0  0  0  0  0  0  0  0  0
    4.5689  -50.4227  -19.8216 C   0  0  0  0  0  0  0  0  0  0  0  0
    4.6003  -50.8240  -21.1390 C   0  0  0  0  0  0  0  0  0  0  0  0
  1  2  1  0  0  0
  2  3  2  0  0  0
  2  4  1  0  0  0
  4  5  1  0  0  0
  5  6  2  0  0  0
  6  7  1  0  0  0
  7  8  2  0  0  0
  8 15  1  0  0  0
 15 16  2  0  0  0
 16 17  1  0  0  0
 17 18  2  0  0  0
 18 21  1  0  0  0
 21 22  1  0  0  0
 21 23  1  0  0  0
 21 24  1  0  0  0
 18 19  1  0  0  0
 19 20  2  0  0  0
  8  9  1  0  0  0
  9 10  2  0  0  0
 10 11  1  0  0  0
 11 25  1  0  0  0
 25 27  1  0  0  0
 27 28  2  0  0  0
 28 29  1  0  0  0
 29 30  2  0  0  0
 30 31  1  0  0  0
 31 32  2  0  0  0
 11 12  1  0  0  0
 12 13  1  0  0  0
 13 14  1  0  0  0
 13  4  1  0  0  0
 10  5  1  0  0  0
 32 27  1  0  0  0
 20 15  1  0  0  0
 25 26  1  0  0  0
M  END
> <minimizedAffinity>
-8.45491

> <CNNscore>
0.2895400822

> <CNNaffinity>
6.6178808212

> <CNN_VS>
1.9161417484

> <CNNaffinity_variance>
0.1519045234

$$$$
[H]c1c([H])c([H])c(N([H])[C@@]2([H])c3c([H])c(-c4c([H])c([H])c(C(F)(F)F)c([H])c4[H])c([H])c([H])c3N(C(=O)C([H])([H])[H])[C@@]([H])(C([H])([H])[H])C2([H])[H])c([H])c1[H]


 32 35  0  0  0  0  0  0  0  0999 V2000
   -1.8285  -52.8444  -17.4047 C   0  0  0  0  0  0  0  0  0  0  0  0
   -0.6034  -52.0969  -17.0930 C   0  0  0  0  0  0  0  0  0  0  0  0
   -0.3240  -51.9286  -15.8570 O   0  0  0  0  0  0  0  0  0  0  0  0
    0.2553  -51.5614  -18.0741 N   0  0  0  0  0  0  0  0  0  0  0  0
    0.2467  -51.8412  -19.4577 C   0  0  0  0  0  0  0  0  0  0  0  0
   -0.1650  -53.0954  -19.8944 C   0  0  0  0  0  0  0  0  0  0  0  0
   -0.2326  -53.3102  -21.2502 C   0  0  0  0  0  0  0  0  0  0  0  0
    0.0817  -52.3667  -22.2095 C   0  0  0  0  0  0  0  0  0  0  0  0
    0.4926  -51.1399  -21.7468 C   0  0  0  0  0  0  0  0  0  0  0  0
    0.5764  -50.8744  -20.3760 C   0  0  0  0  0  0  0  0  0  0  0  0
    1.0922  -49.5500  -20.0066 C   0  0  0  0  0  0  0  0  0  0  0  0
    1.0840  -49.3067  -18.5228 C   0  0  0  0  0  0  0  0  0  0  0  0
    1.2383  -50.5303  -17.6839 C   0  0  0  0  0  0  0  0  0  0  0  0
    2.5949  -51.1156  -17.5605 C   0  0  0  0  0  0  0  0  0  0  0  0
   -0.0401  -52.6286  -23.6476 C   0  0  0  0  0  0  0  0  0  0  0  0
    0.2077  -51.6156  -24.5642 C   0  0  0  0  0  0  0  0  0  0  0  0
    0.1623  -51.8092  -25.9268 C   0  0  0  0  0  0  0  0  0  0  0  0
   -0.1497  -53.0748  -26.4034 C   0  0  0  0  0  0  0  0  0  0  0  0
   -0.4045  -54.1039  -25.5234 C   0  0  0  0  0  0  0  0  0  0  0  0
   -0.3467  -53.8657  -24.1486 C   0  0  0  0  0  0  0  0  0  0  0  0
   -0.1817  -53.2667  -27.8977 C   0  0  0  0  0  0  0  0  0  0  0  0
    0.6928  -52.3830  -28.5081 F   0  0  0  0  0  0  0  0  0  0  0  0
   -1.4229  -53.0649  -28.4215 F   0  0  0  0  0  0  0  0  0  0  0  0
    0.3312  -54.5362  -28.1503 F   0  0  0  0  0  0  0  0  0  0  0  0
    2.4801  -49.4620  -20.5049 N   0  0  0  0  0  0  0  0  0  0  0  0
    3.2117  -49.9287  -19.9248 H   0  0  0  0  0  0  0  0  0  0  0  0
    2.7809  -48.7672  -21.7104 C   0  0  0  0  0  0  0  0  0  0  0  0
    2.4311  -47.4336  -21.8503 C   0  0  0  0  0  0  0  0  0  0  0  0
    2.7919  -46.7823  -23.0047 C   0  0  0  0  0  0  0  0  0  0  0  0
    3.4791  -47.3730  -24.0350 C   0  0  0  0  0  0  0  0  0  0  0  0
    3.8354  -48.7096  -23.9103 C   0  0  0  0  0  0  0  0  0  0  0  0
    3.4811  -49.3749  -22.7572 C   0  0  0  0  0  0  0  0  0  0  0  0
  1  2  1  0  0  0
  2  3  2  0  0  0
  2  4  1  0  0  0
  4  5  1  0  0  0
  5  6  2  0  0  0
  6  7  1  0  0  0
  7  8  2  0  0  0
  8 15  1  0  0  0
 15 16  2  0  0  0
 16 17  1  0  0  0
 17 18  2  0  0  0
 18 21  1  0  0  0
 21 22  1  0  0  0
 21 23  1  0  0  0
 21 24  1  0  0  0
 18 19  1  0  0  0
 19 20  2  0  0  0
  8  9  1  0  0  0
  9 10  2  0  0  0
 10 11  1  0  0  0
 11 25  1  0  0  0
 25 27  1  0  0  0
 27 28  2  0  0  0
 28 29  1  0  0  0
 29 30  2  0  0  0
 30 31  1  0  0  0
 31 32  2  0  0  0
 11 12  1  0  0  0
 12 13  1  0  0  0
 13 14  1  0  0  0
 13  4  1  0  0  0
 10  5  1  0  0  0
 32 27  1  0  0  0
 20 15  1  0  0  0
 25 26  1  0  0  0
M  END
> <minimizedAffinity>
-9.30426

> <CNNscore>
0.2844072282

> <CNNaffinity>
6.4280638695

> <CNN_VS>
1.8281878233

> <CNNaffinity_variance>
0.2187620401

$$$$
[H]c1c([H])c([H])c(N([H])[C@@]2([H])c3c([H])c(-c4c([H])c([H])c(C(F)(F)F)c([H])c4[H])c([H])c([H])c3N(C(=O)C([H])([H])[H])[C@@]([H])(C([H])([H])[H])C2([H])[H])c([H])c1[H]


 32 35  0  0  0  0  0  0  0  0999 V2000
   -1.8323  -53.4772  -23.5988 C   0  0  0  0  0  0  0  0  0  0  0  0
   -1.2010  -53.4678  -22.2729 C   0  0  0  0  0  0  0  0  0  0  0  0
   -1.6722  -54.2732  -21.3993 O   0  0  0  0  0  0  0  0  0  0  0  0
   -0.1275  -52.6231  -21.9254 N   0  0  0  0  0  0  0  0  0  0  0  0
    0.6697  -51.8548  -22.8012 C   0  0  0  0  0  0  0  0  0  0  0  0
    0.8934  -52.3135  -24.0945 C   0  0  0  0  0  0  0  0  0  0  0  0
    1.6111  -51.5064  -24.9443 C   0  0  0  0  0  0  0  0  0  0  0  0
    2.1273  -50.2711  -24.6021 C   0  0  0  0  0  0  0  0  0  0  0  0
    1.8963  -49.8490  -23.3150 C   0  0  0  0  0  0  0  0  0  0  0  0
    1.1705  -50.6357  -22.4146 C   0  0  0  0  0  0  0  0  0  0  0  0
    1.0482  -50.1067  -21.0501 C   0  0  0  0  0  0  0  0  0  0  0  0
    0.1941  -50.9653  -20.1590 C   0  0  0  0  0  0  0  0  0  0  0  0
    0.1931  -52.4179  -20.4982 C   0  0  0  0  0  0  0  0  0  0  0  0
    1.3762  -53.2194  -20.1033 C   0  0  0  0  0  0  0  0  0  0  0  0
    2.8570  -49.4266  -25.5537 C   0  0  0  0  0  0  0  0  0  0  0  0
    3.3646  -49.9736  -26.7246 C   0  0  0  0  0  0  0  0  0  0  0  0
    4.0124  -49.2261  -27.6826 C   0  0  0  0  0  0  0  0  0  0  0  0
    4.1674  -47.8644  -27.4638 C   0  0  0  0  0  0  0  0  0  0  0  0
    3.6792  -47.2871  -26.3118 C   0  0  0  0  0  0  0  0  0  0  0  0
    3.0271  -48.0808  -25.3658 C   0  0  0  0  0  0  0  0  0  0  0  0
    4.8684  -47.0639  -28.5308 C   0  0  0  0  0  0  0  0  0  0  0  0
    4.1372  -47.0985  -29.7066 F   0  0  0  0  0  0  0  0  0  0  0  0
    6.1195  -47.5332  -28.7955 F   0  0  0  0  0  0  0  0  0  0  0  0
    4.8468  -45.7353  -28.1151 F   0  0  0  0  0  0  0  0  0  0  0  0
    2.4105  -50.0253  -20.4845 N   0  0  0  0  0  0  0  0  0  0  0  0
    2.4792  -49.7666  -19.4756 H   0  0  0  0  0  0  0  0  0  0  0  0
    3.5537  -50.2833  -21.2926 C   0  0  0  0  0  0  0  0  0  0  0  0
    4.7287  -50.7332  -20.7120 C   0  0  0  0  0  0  0  0  0  0  0  0
    5.7905  -51.0278  -21.5322 C   0  0  0  0  0  0  0  0  0  0  0  0
    5.7615  -50.9017  -22.8983 C   0  0  0  0  0  0  0  0  0  0  0  0
    4.5914  -50.4503  -23.4949 C   0  0  0  0  0  0  0  0  0  0  0  0
    3.5181  -50.1523  -22.6844 C   0  0  0  0  0  0  0  0  0  0  0  0
  1  2  1  0  0  0
  2  3  2  0  0  0
  2  4  1  0  0  0
  4  5  1  0  0  0
  5  6  2  0  0  0
  6  7  1  0  0  0
  7  8  2  0  0  0
  8 15  1  0  0  0
 15 16  2  0  0  0
 16 17  1  0  0  0
 17 18  2  0  0  0
 18 21  1  0  0  0
 21 22  1  0  0  0
 21 23  1  0  0  0
 21 24  1  0  0  0
 18 19  1  0  0  0
 19 20  2  0  0  0
  8  9  1  0  0  0
  9 10  2  0  0  0
 10 11  1  0  0  0
 11 25  1  0  0  0
 25 27  1  0  0  0
 27 28  2  0  0  0
 28 29  1  0  0  0
 29 30  2  0  0  0
 30 31  1  0  0  0
 31 32  2  0  0  0
 11 12  1  0  0  0
 12 13  1  0  0  0
 13 14  1  0  0  0
 13  4  1  0  0  0
 10  5  1  0  0  0
 32 27  1  0  0  0
 20 15  1  0  0  0
 25 26  1  0  0  0
M  END
> <minimizedAffinity>
-5.39791

> <CNNscore>
0.2791805565

> <CNNaffinity>
6.0691199303

> <CNN_VS>
1.6943802834

> <CNNaffinity_variance>
0.6784757376

$$$$
[H]c1nc(OC2([H])C([H])([H])[C@@]3([H])N(C(=O)OC(C([H])([H])[H])(C([H])([H])[H])C([H])([H])[H])[C@]([H])(C2([H])[H])C([H])([H])C3([H])[H])c([N+](=O)[O-])c(N([H])c2c([H])c([H])c(S(=O)(=O)C([H])([H])[H])c([H])c2[H])n1


 37 40  0  0  0  0  0  0  0  0999 V2000
    1.1670  -51.7233  -21.9594 C   0  0  0  0  0  0  0  0  0  0  0  0
   -0.0146  -52.1988  -22.7516 N   0  0  0  0  0  0  0  0  0  0  0  0
   -1.1327  -52.9273  -22.0668 C   0  0  0  0  0  0  0  0  0  0  0  0
   -1.0692  -53.1804  -20.5896 N   0  0  0  0  0  0  0  0  0  0  0  0
    0.1124  -52.7050  -19.7974 C   0  0  0  0  0  0  0  0  0  0  0  0
    1.2305  -51.9764  -20.4822 C   0  0  0  0  0  0  0  0  0  0  0  0
    2.4121  -51.5010  -19.6900 N   0  0  0  0  0  0  0  0  0  0  0  0
    3.7308  -52.2051  -19.8142 O   0  0  0  0  0  0  0  0  0  0  0  0
    2.6286  -50.3884  -18.7074 O   0  0  0  0  0  0  0  0  0  0  0  0
    0.1759  -52.9581  -18.3202 N   0  0  0  0  0  0  0  0  0  0  0  0
    1.2524  -53.8370  -17.7555 H   0  0  0  0  0  0  0  0  0  0  0  0
   -0.8370  -52.3323  -17.4079 C   0  0  0  0  0  0  0  0  0  0  0  0
   -2.2064  -52.9316  -17.2840 C   0  0  0  0  0  0  0  0  0  0  0  0
   -3.2193  -52.3058  -16.3716 C   0  0  0  0  0  0  0  0  0  0  0  0
   -2.8627  -51.0805  -15.5832 C   0  0  0  0  0  0  0  0  0  0  0  0
   -1.4932  -50.4812  -15.7071 C   0  0  0  0  0  0  0  0  0  0  0  0
   -0.4804  -51.1070  -16.6194 C   0  0  0  0  0  0  0  0  0  0  0  0
   -3.8755  -50.4547  -14.6708 S   0  0  0  0  0  0  0  0  0  0  0  0
   -4.8884  -49.8287  -13.7584 C   0  0  0  0  0  0  0  0  0  0  0  0
   -4.9149  -50.5688  -15.7463 O   0  0  0  0  0  0  0  0  0  0  0  0
   -2.8362  -50.3405  -13.5953 O   0  0  0  0  0  0  0  0  0  0  0  0
    2.2851  -50.9948  -22.6442 O   0  0  0  0  0  0  0  0  0  0  0  0
    2.5374  -49.7158  -22.3157 C   0  0  0  0  0  0  0  0  0  0  0  0
    1.0508  -49.5275  -22.2484 O   0  0  0  0  0  0  0  0  0  0  0  0
    3.7133  -48.8109  -22.0958 N   0  0  0  0  0  0  0  0  0  0  0  0
    5.1578  -49.1978  -22.2141 C   0  0  0  0  0  0  0  0  0  0  0  0
    5.9885  -47.9863  -21.9104 C   0  0  0  0  0  0  0  0  0  0  0  0
    5.0575  -46.8507  -21.6044 C   0  0  0  0  0  0  0  0  0  0  0  0
    3.6514  -47.3604  -21.7190 C   0  0  0  0  0  0  0  0  0  0  0  0
    2.3692  -48.1357  -21.9040 C   0  0  0  0  0  0  0  0  0  0  0  0
    2.5876  -49.5716  -22.2790 C   0  0  0  0  0  0  0  0  0  0  0  0
    3.9818  -50.1026  -22.4340 C   0  0  0  0  0  0  0  0  0  0  0  0
    2.7557  -51.1516  -22.6907 O   0  0  0  0  0  0  0  0  0  0  0  0
    4.1888  -52.4263  -23.5969 C   0  0  0  0  0  0  0  0  0  0  0  0
    3.1122  -51.5123  -24.1024 C   0  0  0  0  0  0  0  0  0  0  0  0
    2.0355  -50.5983  -24.6078 C   0  0  0  0  0  0  0  0  0  0  0  0
    3.4687  -51.8730  -25.5140 C   0  0  0  0  0  0  0  0  0  0  0  0
 34 35  1  0  0  0
 35 36  1  0  0  0
 35 37  1  0  0  0
 35 33  1  0  0  0
 33 23  1  0  0  0
 23 24  2  0  0  0
 23 25  1  0  0  0
 25 26  1  0  0  0
 26 27  1  0  0  0
 27 28  1  0  0  0
 28 29  1  0  0  0
 29 30  1  0  0  0
 30 31  1  0  0  0
 31 22  1  0  0  0
 22  1  1  0  0  0
  1  2  2  0  0  0
  2  3  1  0  0  0
  3  4  2  0  0  0
  4  5  1  0  0  0
  5 10  1  0  0  0
 10 12  1  0  0  0
 12 13  2  0  0  0
 13 14  1  0  0  0
 14 15  2  0  0  0
 15 18  1  0  0  0
 18 19  1  0  0  0
 18 20  2  0  0  0
 18 21  2  0  0  0
 15 16  1  0  0  0
 16 17  2  0  0  0
  5  6  2  0  0  0
  6  7  1  0  0  0
  7  8  2  0  0  0
  7  9  1  0  0  0
 31 32  1  0  0  0
 29 25  1  0  0  0
  6  1  1  0  0  0
 32 26  1  0  0  0
 17 12  1  0  0  0
 10 11  1  0  0  0
M  CHG 1   7   1
M  CHG 1   9  -1
M  END
> <minimizedAffinity>
-6.89904

> <CNNscore>
0.4940111041

> <CNNaffinity>
6.7591733932

> <CNN_VS>
3.3391067982

> <CNNaffinity_variance>
0.0495675988

$$$$
[H]c1nc(OC2([H])C([H])([H])[C@@]3([H])N(C(=O)OC(C([H])([H])[H])(C([H])([H])[H])C([H])([H])[H])[C@]([H])(C2([H])[H])C([H])([H])C3([H])[H])c([N+](=O)[O-])c(N([H])c2c([H])c([H])c(S(=O)(=O)C([H])([H])[H])c([H])c2[H])n1


 37 40  0  0  0  0  0  0  0  0999 V2000
    0.2180  -53.0039  -23.2257 C   0  0  0  0  0  0  0  0  0  0  0  0
   -0.7135  -54.1751  -23.3285 N   0  0  0  0  0  0  0  0  0  0  0  0
   -1.1996  -54.8583  -22.0848 C   0  0  0  0  0  0  0  0  0  0  0  0
   -0.7541  -54.3703  -20.7381 N   0  0  0  0  0  0  0  0  0  0  0  0
    0.1774  -53.1992  -20.6353 C   0  0  0  0  0  0  0  0  0  0  0  0
    0.6634  -52.5160  -21.8790 C   0  0  0  0  0  0  0  0  0  0  0  0
    1.5950  -51.3448  -21.7761 N   0  0  0  0  0  0  0  0  0  0  0  0
    1.0515  -49.9476  -21.8269 O   0  0  0  0  0  0  0  0  0  0  0  0
    3.0803  -51.2052  -21.6198 O   0  0  0  0  0  0  0  0  0  0  0  0
    0.6228  -52.7112  -19.2886 N   0  0  0  0  0  0  0  0  0  0  0  0
    2.0847  -52.5430  -18.9977 H   0  0  0  0  0  0  0  0  0  0  0  0
   -0.3937  -52.3914  -18.2329 C   0  0  0  0  0  0  0  0  0  0  0  0
   -1.6429  -53.2141  -18.1208 C   0  0  0  0  0  0  0  0  0  0  0  0
   -2.6593  -52.8942  -17.0651 C   0  0  0  0  0  0  0  0  0  0  0  0
   -2.4265  -51.7517  -16.1214 C   0  0  0  0  0  0  0  0  0  0  0  0
   -1.1772  -50.9290  -16.2335 C   0  0  0  0  0  0  0  0  0  0  0  0
   -0.1608  -51.2489  -17.2892 C   0  0  0  0  0  0  0  0  0  0  0  0
   -3.4429  -51.4318  -15.0657 S   0  0  0  0  0  0  0  0  0  0  0  0
   -4.4594  -51.1120  -14.0099 C   0  0  0  0  0  0  0  0  0  0  0  0
   -4.5164  -51.3877  -16.1125 O   0  0  0  0  0  0  0  0  0  0  0  0
   -2.3695  -51.4759  -14.0189 O   0  0  0  0  0  0  0  0  0  0  0  0
    0.7041  -52.3207  -24.4694 O   0  0  0  0  0  0  0  0  0  0  0  0
   -0.1051  -52.2369  -25.5396 C   0  0  0  0  0  0  0  0  0  0  0  0
   -1.0782  -51.5294  -24.6438 O   0  0  0  0  0  0  0  0  0  0  0  0
   -0.1185  -52.6328  -26.9864 N   0  0  0  0  0  0  0  0  0  0  0  0
    0.9785  -53.3519  -27.7139 C   0  0  0  0  0  0  0  0  0  0  0  0
    0.5437  -53.5426  -29.1368 C   0  0  0  0  0  0  0  0  0  0  0  0
   -0.8221  -52.9413  -29.2887 C   0  0  0  0  0  0  0  0  0  0  0  0
   -1.2313  -52.3790  -27.9596 C   0  0  0  0  0  0  0  0  0  0  0  0
   -1.3737  -51.9146  -26.5302 C   0  0  0  0  0  0  0  0  0  0  0  0
   -0.1841  -52.2374  -25.6753 C   0  0  0  0  0  0  0  0  0  0  0  0
    0.9919  -52.9561  -26.2672 C   0  0  0  0  0  0  0  0  0  0  0  0
    1.0844  -52.5597  -24.6847 O   0  0  0  0  0  0  0  0  0  0  0  0
    1.6058  -50.5269  -24.9944 C   0  0  0  0  0  0  0  0  0  0  0  0
    2.3705  -51.8119  -24.8759 C   0  0  0  0  0  0  0  0  0  0  0  0
    3.1353  -53.0968  -24.7575 C   0  0  0  0  0  0  0  0  0  0  0  0
    3.6567  -51.0641  -25.0671 C   0  0  0  0  0  0  0  0  0  0  0  0
 34 35  1  0  0  0
 35 36  1  0  0  0
 35 37  1  0  0  0
 35 33  1  0  0  0
 33 23  1  0  0  0
 23 24  2  0  0  0
 23 25  1  0  0  0
 25 26  1  0  0  0
 26 27  1  0  0  0
 27 28  1  0  0  0
 28 29  1  0  0  0
 29 30  1  0  0  0
 30 31  1  0  0  0
 31 22  1  0  0  0
 22  1  1  0  0  0
  1  2  2  0  0  0
  2  3  1  0  0  0
  3  4  2  0  0  0
  4  5  1  0  0  0
  5 10  1  0  0  0
 10 12  1  0  0  0
 12 13  2  0  0  0
 13 14  1  0  0  0
 14 15  2  0  0  0
 15 18  1  0  0  0
 18 19  1  0  0  0
 18 20  2  0  0  0
 18 21  2  0  0  0
 15 16  1  0  0  0
 16 17  2  0  0  0
  5  6  2  0  0  0
  6  7  1  0  0  0
  7  8  2  0  0  0
  7  9  1  0  0  0
 31 32  1  0  0  0
 29 25  1  0  0  0
  6  1  1  0  0  0
 32 26  1  0  0  0
 17 12  1  0  0  0
 10 11  1  0  0  0
M  CHG 1   7   1
M  CHG 1   9  -1
M  END
> <minimizedAffinity>
-8.69972

> <CNNscore>
0.4693807065

> <CNNaffinity>
6.8840093613

> <CNN_VS>
3.2312211990

> <CNNaffinity_variance>
0.2435471267

$$$$
[H]c1nc(OC2([H])C([H])([H])[C@@]3([H])N(C(=O)OC(C([H])([H])[H])(C([H])([H])[H])C([H])([H])[H])[C@]([H])(C2([H])[H])C([H])([H])C3([H])[H])c([N+](=O)[O-])c(N([H])c2c([H])c([H])c(S(=O)(=O)C([H])([H])[H])c([H])c2[H])n1


 37 40  0  0  0  0  0  0  0  0999 V2000
    1.6002  -50.8416  -21.4455 C   0  0  0  0  0  0  0  0  0  0  0  0
    0.6868  -51.3103  -22.5392 N   0  0  0  0  0  0  0  0  0  0  0  0
   -0.4064  -52.2911  -22.2345 C   0  0  0  0  0  0  0  0  0  0  0  0
   -0.5863  -52.8032  -20.8361 N   0  0  0  0  0  0  0  0  0  0  0  0
    0.3271  -52.3346  -19.7425 C   0  0  0  0  0  0  0  0  0  0  0  0
    1.4203  -51.3538  -20.0472 C   0  0  0  0  0  0  0  0  0  0  0  0
    2.3337  -50.8851  -18.9535 N   0  0  0  0  0  0  0  0  0  0  0  0
    3.5799  -51.6568  -18.6350 O   0  0  0  0  0  0  0  0  0  0  0  0
    2.3125  -49.7240  -18.0041 O   0  0  0  0  0  0  0  0  0  0  0  0
    0.1472  -52.8467  -18.3441 N   0  0  0  0  0  0  0  0  0  0  0  0
    1.0057  -53.9688  -17.8402 H   0  0  0  0  0  0  0  0  0  0  0  0
   -0.8911  -52.2368  -17.4499 C   0  0  0  0  0  0  0  0  0  0  0  0
   -0.5877  -50.9727  -16.7016 C   0  0  0  0  0  0  0  0  0  0  0  0
   -1.6261  -50.3628  -15.8073 C   0  0  0  0  0  0  0  0  0  0  0  0
   -2.9680  -51.0171  -15.6614 C   0  0  0  0  0  0  0  0  0  0  0  0
   -3.2715  -52.2812  -16.4096 C   0  0  0  0  0  0  0  0  0  0  0  0
   -2.2331  -52.8910  -17.3039 C   0  0  0  0  0  0  0  0  0  0  0  0
   -4.0065  -50.4072  -14.7671 S   0  0  0  0  0  0  0  0  0  0  0  0
   -5.0450  -49.7974  -13.8728 C   0  0  0  0  0  0  0  0  0  0  0  0
   -3.3056  -49.0840  -14.8555 O   0  0  0  0  0  0  0  0  0  0  0  0
   -4.7075  -51.7304  -14.6787 O   0  0  0  0  0  0  0  0  0  0  0  0
    2.6935  -49.8608  -21.7501 O   0  0  0  0  0  0  0  0  0  0  0  0
    3.9630  -50.2931  -21.8427 C   0  0  0  0  0  0  0  0  0  0  0  0
    3.4469  -51.3506  -22.7729 O   0  0  0  0  0  0  0  0  0  0  0  0
    5.3215  -49.9483  -21.3082 N   0  0  0  0  0  0  0  0  0  0  0  0
    5.6391  -48.8256  -20.3655 C   0  0  0  0  0  0  0  0  0  0  0  0
    7.1148  -48.8490  -20.0972 C   0  0  0  0  0  0  0  0  0  0  0  0
    7.7091  -49.9862  -20.8741 C   0  0  0  0  0  0  0  0  0  0  0  0
    6.6008  -50.6656  -21.6225 C   0  0  0  0  0  0  0  0  0  0  0  0
    5.3102  -51.1401  -22.2456 C   0  0  0  0  0  0  0  0  0  0  0  0
    4.1162  -50.3276  -21.8400 C   0  0  0  0  0  0  0  0  0  0  0  0
    4.2807  -49.1704  -20.9000 C   0  0  0  0  0  0  0  0  0  0  0  0
    2.7691  -49.4807  -21.4372 O   0  0  0  0  0  0  0  0  0  0  0  0
    2.2771  -47.5544  -20.6974 C   0  0  0  0  0  0  0  0  0  0  0  0
    2.5318  -48.1354  -22.0566 C   0  0  0  0  0  0  0  0  0  0  0  0
    2.7866  -48.7163  -23.4159 C   0  0  0  0  0  0  0  0  0  0  0  0
    2.2946  -46.7900  -22.6761 C   0  0  0  0  0  0  0  0  0  0  0  0
 34 35  1  0  0  0
 35 36  1  0  0  0
 35 37  1  0  0  0
 35 33  1  0  0  0
 33 23  1  0  0  0
 23 24  2  0  0  0
 23 25  1  0  0  0
 25 26  1  0  0  0
 26 27  1  0  0  0
 27 28  1  0  0  0
 28 29  1  0  0  0
 29 30  1  0  0  0
 30 31  1  0  0  0
 31 22  1  0  0  0
 22  1  1  0  0  0
  1  2  2  0  0  0
  2  3  1  0  0  0
  3  4  2  0  0  0
  4  5  1  0  0  0
  5 10  1  0  0  0
 10 12  1  0  0  0
 12 13  2  0  0  0
 13 14  1  0  0  0
 14 15  2  0  0  0
 15 18  1  0  0  0
 18 19  1  0  0  0
 18 20  2  0  0  0
 18 21  2  0  0  0
 15 16  1  0  0  0
 16 17  2  0  0  0
  5  6  2  0  0  0
  6  7  1  0  0  0
  7  8  2  0  0  0
  7  9  1  0  0  0
 31 32  1  0  0  0
 29 25  1  0  0  0
  6  1  1  0  0  0
 32 26  1  0  0  0
 17 12  1  0  0  0
 10 11  1  0  0  0
M  CHG 1   7   1
M  CHG 1   9  -1
M  END
> <minimizedAffinity>
-6.88941

> <CNNscore>
0.3684606552

> <CNNaffinity>
6.3755846024

> <CNN_VS>
2.3491520882

> <CNNaffinity_variance>
0.0252765007

$$$$
[H]c1nc(OC2([H])C([H])([H])[C@@]3([H])N(C(=O)OC(C([H])([H])[H])(C([H])([H])[H])C([H])([H])[H])[C@]([H])(C2([H])[H])C([H])([H])C3([H])[H])c([N+](=O)[O-])c(N([H])c2c([H])c([H])c(S(=O)(=O)C([H])([H])[H])c([H])c2[H])n1


 37 40  0  0  0  0  0  0  0  0999 V2000
    1.0270  -52.0967  -22.6046 C   0  0  0  0  0  0  0  0  0  0  0  0
    0.3359  -53.4079  -22.3739 N   0  0  0  0  0  0  0  0  0  0  0  0
   -0.2467  -53.7219  -21.0279 C   0  0  0  0  0  0  0  0  0  0  0  0
   -0.1382  -52.7249  -19.9125 N   0  0  0  0  0  0  0  0  0  0  0  0
    0.5530  -51.4138  -20.1431 C   0  0  0  0  0  0  0  0  0  0  0  0
    1.1356  -51.0997  -21.4892 C   0  0  0  0  0  0  0  0  0  0  0  0
    1.8268  -49.7885  -21.7199 N   0  0  0  0  0  0  0  0  0  0  0  0
    1.0198  -48.5375  -21.9039 O   0  0  0  0  0  0  0  0  0  0  0  0
    3.2641  -49.3722  -21.8231 O   0  0  0  0  0  0  0  0  0  0  0  0
    0.6615  -50.4167  -19.0277 N   0  0  0  0  0  0  0  0  0  0  0  0
    0.0368  -49.0605  -19.1706 H   0  0  0  0  0  0  0  0  0  0  0  0
    1.3948  -50.7759  -17.7694 C   0  0  0  0  0  0  0  0  0  0  0  0
    0.6291  -51.0829  -16.5167 C   0  0  0  0  0  0  0  0  0  0  0  0
    1.3624  -51.4421  -15.2585 C   0  0  0  0  0  0  0  0  0  0  0  0
    2.8616  -51.4944  -15.2530 C   0  0  0  0  0  0  0  0  0  0  0  0
    3.6273  -51.1874  -16.5058 C   0  0  0  0  0  0  0  0  0  0  0  0
    2.8939  -50.8282  -17.7640 C   0  0  0  0  0  0  0  0  0  0  0  0
    3.5949  -51.8536  -13.9948 S   0  0  0  0  0  0  0  0  0  0  0  0
    4.3283  -52.2129  -12.7365 C   0  0  0  0  0  0  0  0  0  0  0  0
    2.7710  -50.8599  -13.2308 O   0  0  0  0  0  0  0  0  0  0  0  0
    4.4189  -52.8474  -14.7588 O   0  0  0  0  0  0  0  0  0  0  0  0
    1.6097  -51.7826  -23.9506 O   0  0  0  0  0  0  0  0  0  0  0  0
    0.8298  -51.8560  -25.0431 C   0  0  0  0  0  0  0  0  0  0  0  0
   -0.1262  -50.9553  -24.3187 O   0  0  0  0  0  0  0  0  0  0  0  0
    0.8287  -52.5046  -26.3957 N   0  0  0  0  0  0  0  0  0  0  0  0
    1.9041  -53.3921  -26.9488 C   0  0  0  0  0  0  0  0  0  0  0  0
    1.4920  -53.8156  -28.3275 C   0  0  0  0  0  0  0  0  0  0  0  0
    0.1620  -53.1899  -28.6265 C   0  0  0  0  0  0  0  0  0  0  0  0
   -0.2480  -52.3797  -27.4325 C   0  0  0  0  0  0  0  0  0  0  0  0
   -0.3986  -51.6597  -26.1141 C   0  0  0  0  0  0  0  0  0  0  0  0
    0.7539  -51.8773  -25.1789 C   0  0  0  0  0  0  0  0  0  0  0  0
    1.9052  -52.7434  -25.5963 C   0  0  0  0  0  0  0  0  0  0  0  0
    1.9822  -52.0735  -24.1080 O   0  0  0  0  0  0  0  0  0  0  0  0
    4.0094  -52.6804  -23.9599 C   0  0  0  0  0  0  0  0  0  0  0  0
    3.3063  -51.4258  -24.3860 C   0  0  0  0  0  0  0  0  0  0  0  0
    2.6031  -50.1712  -24.8122 C   0  0  0  0  0  0  0  0  0  0  0  0
    4.6304  -50.7782  -24.6641 C   0  0  0  0  0  0  0  0  0  0  0  0
 34 35  1  0  0  0
 35 36  1  0  0  0
 35 37  1  0  0  0
 35 33  1  0  0  0
 33 23  1  0  0  0
 23 24  2  0  0  0
 23 25  1  0  0  0
 25 26  1  0  0  0
 26 27  1  0  0  0
 27 28  1  0  0  0
 28 29  1  0  0  0
 29 30  1  0  0  0
 30 31  1  0  0  0
 31 22  1  0  0  0
 22  1  1  0  0  0
  1  2  2  0  0  0
  2  3  1  0  0  0
  3  4  2  0  0  0
  4  5  1  0  0  0
  5 10  1  0  0  0
 10 12  1  0  0  0
 12 13  2  0  0  0
 13 14  1  0  0  0
 14 15  2  0  0  0
 15 18  1  0  0  0
 18 19  1  0  0  0
 18 20  2  0  0  0
 18 21  2  0  0  0
 15 16  1  0  0  0
 16 17  2  0  0  0
  5  6  2  0  0  0
  6  7  1  0  0  0
  7  8  2  0  0  0
  7  9  1  0  0  0
 31 32  1  0  0  0
 29 25  1  0  0  0
  6  1  1  0  0  0
 32 26  1  0  0  0
 17 12  1  0  0  0
 10 11  1  0  0  0
M  CHG 1   7   1
M  CHG 1   9  -1
M  END
> <minimizedAffinity>
-7.18334

> <CNNscore>
0.2757251561

> <CNNaffinity>
6.4179902077

> <CNN_VS>
1.7696013451

> <CNNaffinity_variance>
0.1213904023

$$$$
[H]c1nc(OC2([H])C([H])([H])[C@@]3([H])N(C(=O)OC(C([H])([H])[H])(C([H])([H])[H])C([H])([H])[H])[C@]([H])(C2([H])[H])C([H])([H])C3([H])[H])c([N+](=O)[O-])c(N([H])c2c([H])c([H])c(S(=O)(=O)C([H])([H])[H])c([H])c2[H])n1


 37 40  0  0  0  0  0  0  0  0999 V2000
    1.3783  -51.0618  -21.5596 C   0  0  0  0  0  0  0  0  0  0  0  0
    0.3978  -51.4625  -22.6217 N   0  0  0  0  0  0  0  0  0  0  0  0
   -0.7248  -52.4005  -22.2906 C   0  0  0  0  0  0  0  0  0  0  0  0
   -0.8671  -52.9378  -20.8974 N   0  0  0  0  0  0  0  0  0  0  0  0
    0.1133  -52.5371  -19.8353 C   0  0  0  0  0  0  0  0  0  0  0  0
    1.2360  -51.5991  -20.1663 C   0  0  0  0  0  0  0  0  0  0  0  0
    2.2164  -51.1984  -19.1042 N   0  0  0  0  0  0  0  0  0  0  0  0
    3.5648  -51.8529  -19.0428 O   0  0  0  0  0  0  0  0  0  0  0  0
    2.1849  -50.2101  -17.9762 O   0  0  0  0  0  0  0  0  0  0  0  0
   -0.0290  -53.0745  -18.4420 N   0  0  0  0  0  0  0  0  0  0  0  0
    0.8020  -54.2425  -18.0002 H   0  0  0  0  0  0  0  0  0  0  0  0
   -1.0023  -52.4437  -17.4908 C   0  0  0  0  0  0  0  0  0  0  0  0
   -2.3777  -53.0210  -17.3325 C   0  0  0  0  0  0  0  0  0  0  0  0
   -3.3509  -52.3902  -16.3813 C   0  0  0  0  0  0  0  0  0  0  0  0
   -2.9487  -51.1821  -15.5882 C   0  0  0  0  0  0  0  0  0  0  0  0
   -1.5733  -50.6049  -15.7464 C   0  0  0  0  0  0  0  0  0  0  0  0
   -0.6001  -51.2357  -16.6977 C   0  0  0  0  0  0  0  0  0  0  0  0
   -3.9219  -50.5514  -14.6369 S   0  0  0  0  0  0  0  0  0  0  0  0
   -4.8951  -49.9206  -13.6855 C   0  0  0  0  0  0  0  0  0  0  0  0
   -4.9319  -50.4447  -15.7408 O   0  0  0  0  0  0  0  0  0  0  0  0
   -2.9119  -50.6580  -13.5329 O   0  0  0  0  0  0  0  0  0  0  0  0
    2.5010  -50.1238  -21.8905 O   0  0  0  0  0  0  0  0  0  0  0  0
    3.1913  -50.2904  -23.0321 C   0  0  0  0  0  0  0  0  0  0  0  0
    3.5974  -51.6299  -22.4929 O   0  0  0  0  0  0  0  0  0  0  0  0
    3.4802  -49.5473  -24.3027 N   0  0  0  0  0  0  0  0  0  0  0  0
    2.9675  -48.1846  -24.6633 C   0  0  0  0  0  0  0  0  0  0  0  0
    3.5030  -47.8316  -26.0192 C   0  0  0  0  0  0  0  0  0  0  0  0
    4.3467  -48.9762  -26.4967 C   0  0  0  0  0  0  0  0  0  0  0  0
    4.3326  -50.0366  -25.4358 C   0  0  0  0  0  0  0  0  0  0  0  0
    4.1399  -50.9102  -24.2197 C   0  0  0  0  0  0  0  0  0  0  0  0
    3.2647  -50.2904  -23.1708 C   0  0  0  0  0  0  0  0  0  0  0  0
    2.6785  -48.9276  -23.3926 C   0  0  0  0  0  0  0  0  0  0  0  0
    2.3161  -49.6706  -21.9833 O   0  0  0  0  0  0  0  0  0  0  0  0
    1.5460  -47.8556  -21.2006 C   0  0  0  0  0  0  0  0  0  0  0  0
    2.8553  -48.5811  -21.1045 C   0  0  0  0  0  0  0  0  0  0  0  0
    4.1647  -49.3066  -21.0084 C   0  0  0  0  0  0  0  0  0  0  0  0
    3.3945  -47.4916  -20.2257 C   0  0  0  0  0  0  0  0  0  0  0  0
 34 35  1  0  0  0
 35 36  1  0  0  0
 35 37  1  0  0  0
 35 33  1  0  0  0
 33 23  1  0  0  0
 23 24  2  0  0  0
 23 25  1  0  0  0
 25 26  1  0  0  0
 26 27  1  0  0  0
 27 28  1  0  0  0
 28 29  1  0  0  0
 29 30  1  0  0  0
 30 31  1  0  0  0
 31 22  1  0  0  0
 22  1  1  0  0  0
  1  2  2  0  0  0
  2  3  1  0  0  0
  3  4  2  0  0  0
  4  5  1  0  0  0
  5 10  1  0  0  0
 10 12  1  0  0  0
 12 13  2  0  0  0
 13 14  1  0  0  0
 14 15  2  0  0  0
 15 18  1  0  0  0
 18 19  1  0  0  0
 18 20  2  0  0  0
 18 21  2  0  0  0
 15 16  1  0  0  0
 16 17  2  0  0  0
  5  6  2  0  0  0
  6  7  1  0  0  0
  7  8  2  0  0  0
  7  9  1  0  0  0
 31 32  1  0  0  0
 29 25  1  0  0  0
  6  1  1  0  0  0
 32 26  1  0  0  0
 17 12  1  0  0  0
 10 11  1  0  0  0
M  CHG 1   7   1
M  CHG 1   9  -1
M  END
> <minimizedAffinity>
-6.67206

> <CNNscore>
0.2710145712

> <CNNaffinity>
6.4960641861

> <CNN_VS>
1.7605280876

> <CNNaffinity_variance>
0.0247354116

$$$$
[H]c1nc(OC2([H])C([H])([H])[C@@]3([H])N(C(=O)OC(C([H])([H])[H])(C([H])([H])[H])C([H])([H])[H])[C@]([H])(C2([H])[H])C([H])([H])C3([H])[H])c([N+](=O)[O-])c(N([H])c2c([H])c([H])c(S(=O)(=O)C([H])([H])[H])c([H])c2[H])n1


 37 40  0  0  0  0  0  0  0  0999 V2000
    1.1182  -52.4691  -22.5316 C   0  0  0  0  0  0  0  0  0  0  0  0
    0.3828  -53.7708  -22.4096 N   0  0  0  0  0  0  0  0  0  0  0  0
   -0.0467  -54.2660  -21.0605 C   0  0  0  0  0  0  0  0  0  0  0  0
    0.2592  -53.4596  -19.8332 N   0  0  0  0  0  0  0  0  0  0  0  0
    0.9946  -52.1580  -19.9551 C   0  0  0  0  0  0  0  0  0  0  0  0
    1.4241  -51.6627  -21.3043 C   0  0  0  0  0  0  0  0  0  0  0  0
    2.1595  -50.3611  -21.4262 N   0  0  0  0  0  0  0  0  0  0  0  0
    1.4035  -49.0957  -21.7042 O   0  0  0  0  0  0  0  0  0  0  0  0
    3.6037  -49.9672  -21.3306 O   0  0  0  0  0  0  0  0  0  0  0  0
    1.3005  -51.3516  -18.7278 N   0  0  0  0  0  0  0  0  0  0  0  0
    2.5512  -50.5259  -18.6655 H   0  0  0  0  0  0  0  0  0  0  0  0
    0.3557  -51.3710  -17.5630 C   0  0  0  0  0  0  0  0  0  0  0  0
   -0.9516  -52.0987  -17.6696 C   0  0  0  0  0  0  0  0  0  0  0  0
   -1.8964  -52.1180  -16.5048 C   0  0  0  0  0  0  0  0  0  0  0  0
   -1.5339  -51.4096  -15.2332 C   0  0  0  0  0  0  0  0  0  0  0  0
   -0.2266  -50.6819  -15.1266 C   0  0  0  0  0  0  0  0  0  0  0  0
    0.7182  -50.6626  -16.2914 C   0  0  0  0  0  0  0  0  0  0  0  0
   -2.4787  -51.4289  -14.0683 S   0  0  0  0  0  0  0  0  0  0  0  0
   -3.4236  -51.4483  -12.9034 C   0  0  0  0  0  0  0  0  0  0  0  0
   -1.3708  -51.9075  -13.1776 O   0  0  0  0  0  0  0  0  0  0  0  0
   -3.5867  -50.9504  -14.9590 O   0  0  0  0  0  0  0  0  0  0  0  0
    1.5477  -51.9738  -23.8807 O   0  0  0  0  0  0  0  0  0  0  0  0
    0.6757  -51.9959  -24.9036 C   0  0  0  0  0  0  0  0  0  0  0  0
   -0.2276  -51.1642  -24.0420 O   0  0  0  0  0  0  0  0  0  0  0  0
    0.5661  -52.5582  -26.2899 N   0  0  0  0  0  0  0  0  0  0  0  0
    1.6032  -53.3849  -26.9906 C   0  0  0  0  0  0  0  0  0  0  0  0
    1.0781  -53.7302  -28.3526 C   0  0  0  0  0  0  0  0  0  0  0  0
   -0.2835  -53.1169  -28.4937 C   0  0  0  0  0  0  0  0  0  0  0  0
   -0.5999  -52.3926  -27.2188 C   0  0  0  0  0  0  0  0  0  0  0  0
   -0.6456  -51.7604  -25.8486 C   0  0  0  0  0  0  0  0  0  0  0  0
    0.5885  -52.0103  -25.0333 C   0  0  0  0  0  0  0  0  0  0  0  0
    1.7128  -52.8226  -25.6043 C   0  0  0  0  0  0  0  0  0  0  0  0
    1.9097  -52.2459  -24.0883 O   0  0  0  0  0  0  0  0  0  0  0  0
    3.9710  -52.7458  -24.1213 C   0  0  0  0  0  0  0  0  0  0  0  0
    3.1762  -51.5041  -24.3979 C   0  0  0  0  0  0  0  0  0  0  0  0
    2.3814  -50.2625  -24.6744 C   0  0  0  0  0  0  0  0  0  0  0  0
    4.4427  -50.7624  -24.7075 C   0  0  0  0  0  0  0  0  0  0  0  0
 34 35  1  0  0  0
 35 36  1  0  0  0
 35 37  1  0  0  0
 35 33  1  0  0  0
 33 23  1  0  0  0
 23 24  2  0  0  0
 23 25  1  0  0  0
 25 26  1  0  0  0
 26 27  1  0  0  0
 27 28  1  0  0  0
 28 29  1  0  0  0
 29 30  1  0  0  0
 30 31  1  0  0  0
 31 22  1  0  0  0
 22  1  1  0  0  0
  1  2  2  0  0  0
  2  3  1  0  0  0
  3  4  2  0  0  0
  4  5  1  0  0  0
  5 10  1  0  0  0
 10 12  1  0  0  0
 12 13  2  0  0  0
 13 14  1  0  0  0
 14 15  2  0  0  0
 15 18  1  0  0  0
 18 19  1  0  0  0
 18 20  2  0  0  0
 18 21  2  0  0  0
 15 16  1  0  0  0
 16 17  2  0  0  0
  5  6  2  0  0  0
  6  7  1  0  0  0
  7  8  2  0  0  0
  7  9  1  0  0  0
 31 32  1  0  0  0
 29 25  1  0  0  0
  6  1  1  0  0  0
 32 26  1  0  0  0
 17 12  1  0  0  0
 10 11  1  0  0  0
M  CHG 1   7   1
M  CHG 1   9  -1
M  END
> <minimizedAffinity>
-7.60407

> <CNNscore>
0.2195783108

> <CNNaffinity>
6.6718468666

> <CNN_VS>
1.4649928808

> <CNNaffinity_variance>
0.0402031206

$$$$
[H]c1nc(OC2([H])C([H])([H])[C@@]3([H])N(C(=O)OC(C([H])([H])[H])(C([H])([H])[H])C([H])([H])[H])[C@]([H])(C2([H])[H])C([H])([H])C3([H])[H])c([N+](=O)[O-])c(N([H])c2c([H])c([H])c(S(=O)(=O)C([H])([H])[H])c([H])c2[H])n1


 37 40  0  0  0  0  0  0  0  0999 V2000
    1.7773  -50.6090  -21.2518 C   0  0  0  0  0  0  0  0  0  0  0  0
    0.8724  -51.0006  -22.3822 N   0  0  0  0  0  0  0  0  0  0  0  0
   -0.2555  -51.9597  -22.1421 C   0  0  0  0  0  0  0  0  0  0  0  0
   -0.4786  -52.5273  -20.7717 N   0  0  0  0  0  0  0  0  0  0  0  0
    0.4263  -52.1357  -19.6413 C   0  0  0  0  0  0  0  0  0  0  0  0
    1.5542  -51.1766  -19.8813 C   0  0  0  0  0  0  0  0  0  0  0  0
    2.4591  -50.7850  -18.7509 N   0  0  0  0  0  0  0  0  0  0  0  0
    3.6995  -51.5813  -18.4728 O   0  0  0  0  0  0  0  0  0  0  0  0
    2.4334  -49.6889  -17.7272 O   0  0  0  0  0  0  0  0  0  0  0  0
    0.2031  -52.7033  -18.2708 N   0  0  0  0  0  0  0  0  0  0  0  0
    1.0390  -53.8521  -17.7897 H   0  0  0  0  0  0  0  0  0  0  0  0
   -0.8558  -52.1221  -17.3816 C   0  0  0  0  0  0  0  0  0  0  0  0
   -0.5956  -50.8430  -16.6425 C   0  0  0  0  0  0  0  0  0  0  0  0
   -1.6546  -50.2619  -15.7533 C   0  0  0  0  0  0  0  0  0  0  0  0
   -2.9740  -50.9597  -15.6033 C   0  0  0  0  0  0  0  0  0  0  0  0
   -3.2342  -52.2387  -16.3425 C   0  0  0  0  0  0  0  0  0  0  0  0
   -2.1752  -52.8199  -17.2316 C   0  0  0  0  0  0  0  0  0  0  0  0
   -4.0330  -50.3785  -14.7142 S   0  0  0  0  0  0  0  0  0  0  0  0
   -5.0921  -49.7972  -13.8250 C   0  0  0  0  0  0  0  0  0  0  0  0
   -4.5153  -51.7602  -14.3853 O   0  0  0  0  0  0  0  0  0  0  0  0
   -3.5507  -48.9967  -15.0430 O   0  0  0  0  0  0  0  0  0  0  0  0
    2.9053  -49.6498  -21.4917 O   0  0  0  0  0  0  0  0  0  0  0  0
    2.6500  -48.4398  -22.0188 C   0  0  0  0  0  0  0  0  0  0  0  0
    1.9613  -48.1147  -20.7265 O   0  0  0  0  0  0  0  0  0  0  0  0
    2.8957  -47.6798  -23.2885 N   0  0  0  0  0  0  0  0  0  0  0  0
    3.6227  -48.1924  -24.4963 C   0  0  0  0  0  0  0  0  0  0  0  0
    3.6338  -47.1033  -25.5276 C   0  0  0  0  0  0  0  0  0  0  0  0
    2.9136  -45.9176  -24.9573 C   0  0  0  0  0  0  0  0  0  0  0  0
    2.4574  -46.2739  -23.5735 C   0  0  0  0  0  0  0  0  0  0  0  0
    2.1296  -46.8985  -22.2387 C   0  0  0  0  0  0  0  0  0  0  0  0
    2.6306  -48.3054  -22.0978 C   0  0  0  0  0  0  0  0  0  0  0  0
    3.3771  -48.9524  -23.2265 C   0  0  0  0  0  0  0  0  0  0  0  0
    3.1509  -49.8466  -21.8778 O   0  0  0  0  0  0  0  0  0  0  0  0
    4.6348  -51.1798  -22.5994 C   0  0  0  0  0  0  0  0  0  0  0  0
    4.5944  -50.1003  -21.5587 C   0  0  0  0  0  0  0  0  0  0  0  0
    4.5541  -49.0209  -20.5179 C   0  0  0  0  0  0  0  0  0  0  0  0
    6.0380  -50.3541  -21.2395 C   0  0  0  0  0  0  0  0  0  0  0  0
 34 35  1  0  0  0
 35 36  1  0  0  0
 35 37  1  0  0  0
 35 33  1  0  0  0
 33 23  1  0  0  0
 23 24  2  0  0  0
 23 25  1  0  0  0
 25 26  1  0  0  0
 26 27  1  0  0  0
 27 28  1  0  0  0
 28 29  1  0  0  0
 29 30  1  0  0  0
 30 31  1  0  0  0
 31 22  1  0  0  0
 22  1  1  0  0  0
  1  2  2  0  0  0
  2  3  1  0  0  0
  3  4  2  0  0  0
  4  5  1  0  0  0
  5 10  1  0  0  0
 10 12  1  0  0  0
 12 13  2  0  0  0
 13 14  1  0  0  0
 14 15  2  0  0  0
 15 18  1  0  0  0
 18 19  1  0  0  0
 18 20  2  0  0  0
 18 21  2  0  0  0
 15 16  1  0  0  0
 16 17  2  0  0  0
  5  6  2  0  0  0
  6  7  1  0  0  0
  7  8  2  0  0  0
  7  9  1  0  0  0
 31 32  1  0  0  0
 29 25  1  0  0  0
  6  1  1  0  0  0
 32 26  1  0  0  0
 17 12  1  0  0  0
 10 11  1  0  0  0
M  CHG 1   7   1
M  CHG 1   9  -1
M  END
> <minimizedAffinity>
-6.56835

> <CNNscore>
0.2109445333

> <CNNaffinity>
6.1782865524

> <CNN_VS>
1.3032758236

> <CNNaffinity_variance>
0.0365472995

$$$$
[H]c1nc(OC2([H])C([H])([H])[C@@]3([H])N(C(=O)OC(C([H])([H])[H])(C([H])([H])[H])C([H])([H])[H])[C@]([H])(C2([H])[H])C([H])([H])C3([H])[H])c([N+](=O)[O-])c(N([H])c2c([H])c([H])c(S(=O)(=O)C([H])([H])[H])c([H])c2[H])n1


 37 40  0  0  0  0  0  0  0  0999 V2000
    0.9975  -52.5736  -22.8071 C   0  0  0  0  0  0  0  0  0  0  0  0
    0.2996  -53.9006  -22.7622 N   0  0  0  0  0  0  0  0  0  0  0  0
   -0.1877  -54.4478  -21.4534 C   0  0  0  0  0  0  0  0  0  0  0  0
    0.0229  -53.6680  -20.1894 N   0  0  0  0  0  0  0  0  0  0  0  0
    0.7208  -52.3410  -20.2343 C   0  0  0  0  0  0  0  0  0  0  0  0
    1.2081  -51.7938  -21.5431 C   0  0  0  0  0  0  0  0  0  0  0  0
    1.9061  -50.4669  -21.5880 N   0  0  0  0  0  0  0  0  0  0  0  0
    3.3143  -50.3428  -21.0864 O   0  0  0  0  0  0  0  0  0  0  0  0
    1.5112  -49.0970  -22.0543 O   0  0  0  0  0  0  0  0  0  0  0  0
    0.9314  -51.5613  -18.9703 N   0  0  0  0  0  0  0  0  0  0  0  0
    2.2122  -50.8101  -18.7570 H   0  0  0  0  0  0  0  0  0  0  0  0
   -0.1388  -51.5327  -17.9196 C   0  0  0  0  0  0  0  0  0  0  0  0
   -0.1895  -50.4057  -16.9310 C   0  0  0  0  0  0  0  0  0  0  0  0
   -1.2597  -50.3772  -15.8804 C   0  0  0  0  0  0  0  0  0  0  0  0
   -2.2792  -51.4758  -15.8184 C   0  0  0  0  0  0  0  0  0  0  0  0
   -2.2285  -52.6028  -16.8069 C   0  0  0  0  0  0  0  0  0  0  0  0
   -1.1583  -52.6312  -17.8575 C   0  0  0  0  0  0  0  0  0  0  0  0
   -3.3494  -51.4473  -14.7678 S   0  0  0  0  0  0  0  0  0  0  0  0
   -4.4197  -51.4188  -13.7171 C   0  0  0  0  0  0  0  0  0  0  0  0
   -2.3361  -51.8172  -13.7254 O   0  0  0  0  0  0  0  0  0  0  0  0
   -4.3628  -51.0774  -15.8100 O   0  0  0  0  0  0  0  0  0  0  0  0
    1.4849  -52.0263  -24.1159 O   0  0  0  0  0  0  0  0  0  0  0  0
    2.7639  -51.6282  -24.2293 C   0  0  0  0  0  0  0  0  0  0  0  0
    3.1283  -52.8590  -23.4532 O   0  0  0  0  0  0  0  0  0  0  0  0
    3.5534  -50.5024  -24.8286 N   0  0  0  0  0  0  0  0  0  0  0  0
    2.9909  -49.3360  -25.5855 C   0  0  0  0  0  0  0  0  0  0  0  0
    4.1339  -48.4580  -26.0009 C   0  0  0  0  0  0  0  0  0  0  0  0
    5.4031  -49.0818  -25.5007 C   0  0  0  0  0  0  0  0  0  0  0  0
    5.0443  -50.3453  -24.7762 C   0  0  0  0  0  0  0  0  0  0  0  0
    4.3995  -51.5422  -24.1198 C   0  0  0  0  0  0  0  0  0  0  0  0
    2.9055  -51.5649  -24.2534 C   0  0  0  0  0  0  0  0  0  0  0  0
    2.2013  -50.4618  -24.9862 C   0  0  0  0  0  0  0  0  0  0  0  0
    1.2700  -51.6509  -24.3629 O   0  0  0  0  0  0  0  0  0  0  0  0
    1.6517  -53.3408  -25.5869 C   0  0  0  0  0  0  0  0  0  0  0  0
    0.6355  -52.2376  -25.5889 C   0  0  0  0  0  0  0  0  0  0  0  0
   -0.3808  -51.1343  -25.5908 C   0  0  0  0  0  0  0  0  0  0  0  0
    0.0009  -52.8243  -26.8149 C   0  0  0  0  0  0  0  0  0  0  0  0
 34 35  1  0  0  0
 35 36  1  0  0  0
 35 37  1  0  0  0
 35 33  1  0  0  0
 33 23  1  0  0  0
 23 24  2  0  0  0
 23 25  1  0  0  0
 25 26  1  0  0  0
 26 27  1  0  0  0
 27 28  1  0  0  0
 28 29  1  0  0  0
 29 30  1  0  0  0
 30 31  1  0  0  0
 31 22  1  0  0  0
 22  1  1  0  0  0
  1  2  2  0  0  0
  2  3  1  0  0  0
  3  4  2  0  0  0
  4  5  1  0  0  0
  5 10  1  0  0  0
 10 12  1  0  0  0
 12 13  2  0  0  0
 13 14  1  0  0  0
 14 15  2  0  0  0
 15 18  1  0  0  0
 18 19  1  0  0  0
 18 20  2  0  0  0
 18 21  2  0  0  0
 15 16  1  0  0  0
 16 17  2  0  0  0
  5  6  2  0  0  0
  6  7  1  0  0  0
  7  8  2  0  0  0
  7  9  1  0  0  0
 31 32  1  0  0  0
 29 25  1  0  0  0
  6  1  1  0  0  0
 32 26  1  0  0  0
 17 12  1  0  0  0
 10 11  1  0  0  0
M  CHG 1   7   1
M  CHG 1   9  -1
M  END
> <minimizedAffinity>
-7.39300

> <CNNscore>
0.1397504359

> <CNNaffinity>
6.5724744797

> <CNN_VS>
0.9185061455

> <CNNaffinity_variance>
0.2394503653

$$$$
[H]c1nc(OC2([H])C([H])([H])[C@@]3([H])N(C(=O)OC(C([H])([H])[H])(C([H])([H])[H])C([H])([H])[H])[C@]([H])(C2([H])[H])C([H])([H])C3([H])[H])c([N+](=O)[O-])c(N([H])c2c([H])c([H])c(S(=O)(=O)C([H])([H])[H])c([H])c2[H])n1


 37 40  0  0  0  0  0  0  0  0999 V2000
    3.1203  -48.2460  -22.1399 C   0  0  0  0  0  0  0  0  0  0  0  0
    2.2783  -47.9902  -20.9252 N   0  0  0  0  0  0  0  0  0  0  0  0
    1.4204  -49.0849  -20.3633 C   0  0  0  0  0  0  0  0  0  0  0  0
    1.4045  -50.4353  -21.0161 N   0  0  0  0  0  0  0  0  0  0  0  0
    2.2466  -50.6910  -22.2308 C   0  0  0  0  0  0  0  0  0  0  0  0
    3.1045  -49.5964  -22.7927 C   0  0  0  0  0  0  0  0  0  0  0  0
    3.9466  -49.8522  -24.0073 N   0  0  0  0  0  0  0  0  0  0  0  0
    3.4214  -49.5087  -25.3698 O   0  0  0  0  0  0  0  0  0  0  0  0
    5.3174  -50.4212  -24.2241 O   0  0  0  0  0  0  0  0  0  0  0  0
    2.2308  -52.0415  -22.8836 N   0  0  0  0  0  0  0  0  0  0  0  0
    2.9022  -53.2050  -22.2162 H   0  0  0  0  0  0  0  0  0  0  0  0
    1.5436  -52.2283  -24.2037 C   0  0  0  0  0  0  0  0  0  0  0  0
    0.1067  -51.8289  -24.3645 C   0  0  0  0  0  0  0  0  0  0  0  0
   -0.5805  -52.0158  -25.6847 C   0  0  0  0  0  0  0  0  0  0  0  0
    0.1693  -52.6019  -26.8442 C   0  0  0  0  0  0  0  0  0  0  0  0
    1.6062  -53.0012  -26.6834 C   0  0  0  0  0  0  0  0  0  0  0  0
    2.2933  -52.8144  -25.3632 C   0  0  0  0  0  0  0  0  0  0  0  0
   -0.5179  -52.7887  -28.1643 S   0  0  0  0  0  0  0  0  0  0  0  0
   -1.2050  -52.9756  -29.4846 C   0  0  0  0  0  0  0  0  0  0  0  0
   -1.8449  -52.8380  -27.4667 O   0  0  0  0  0  0  0  0  0  0  0  0
    0.8091  -52.7395  -28.8620 O   0  0  0  0  0  0  0  0  0  0  0  0
    3.9783  -47.1514  -22.7018 O   0  0  0  0  0  0  0  0  0  0  0  0
    3.5182  -46.4107  -23.7250 C   0  0  0  0  0  0  0  0  0  0  0  0
    2.2363  -46.2941  -22.9548 O   0  0  0  0  0  0  0  0  0  0  0  0
    3.9876  -45.8915  -25.0517 N   0  0  0  0  0  0  0  0  0  0  0  0
    5.3384  -46.1230  -25.6613 C   0  0  0  0  0  0  0  0  0  0  0  0
    5.3742  -45.4243  -26.9881 C   0  0  0  0  0  0  0  0  0  0  0  0
    4.0455  -44.7610  -27.1986 C   0  0  0  0  0  0  0  0  0  0  0  0
    3.1885  -45.0497  -26.0019 C   0  0  0  0  0  0  0  0  0  0  0  0
    2.5676  -45.4932  -24.6992 C   0  0  0  0  0  0  0  0  0  0  0  0
    3.4837  -46.3273  -23.8535 C   0  0  0  0  0  0  0  0  0  0  0  0
    4.8691  -46.6422  -24.3345 C   0  0  0  0  0  0  0  0  0  0  0  0
    4.4343  -47.2447  -22.8793 O   0  0  0  0  0  0  0  0  0  0  0  0
    6.4994  -47.5478  -22.5007 C   0  0  0  0  0  0  0  0  0  0  0  0
    5.4613  -46.5831  -22.0090 C   0  0  0  0  0  0  0  0  0  0  0  0
    4.4232  -45.6184  -21.5173 C   0  0  0  0  0  0  0  0  0  0  0  0
    6.4883  -45.9215  -21.1387 C   0  0  0  0  0  0  0  0  0  0  0  0
 34 35  1  0  0  0
 35 36  1  0  0  0
 35 37  1  0  0  0
 35 33  1  0  0  0
 33 23  1  0  0  0
 23 24  2  0  0  0
 23 25  1  0  0  0
 25 26  1  0  0  0
 26 27  1  0  0  0
 27 28  1  0  0  0
 28 29  1  0  0  0
 29 30  1  0  0  0
 30 31  1  0  0  0
 31 22  1  0  0  0
 22  1  1  0  0  0
  1  2  2  0  0  0
  2  3  1  0  0  0
  3  4  2  0  0  0
  4  5  1  0  0  0
  5 10  1  0  0  0
 10 12  1  0  0  0
 12 13  2  0  0  0
 13 14  1  0  0  0
 14 15  2  0  0  0
 15 18  1  0  0  0
 18 19  1  0  0  0
 18 20  2  0  0  0
 18 21  2  0  0  0
 15 16  1  0  0  0
 16 17  2  0  0  0
  5  6  2  0  0  0
  6  7  1  0  0  0
  7  8  2  0  0  0
  7  9  1  0  0  0
 31 32  1  0  0  0
 29 25  1  0  0  0
  6  1  1  0  0  0
 32 26  1  0  0  0
 17 12  1  0  0  0
 10 11  1  0  0  0
M  CHG 1   7   1
M  CHG 1   9  -1
M  END
> <minimizedAffinity>
-7.00991

> <CNNscore>
0.0966725498

> <CNNaffinity>
5.8395385742

> <CNN_VS>
0.5645231009

> <CNNaffinity_variance>
0.2362769097

$$$$
[H]c1c([H])c(N([H])c2nc(N3C([H])([H])C([H])([H])C([H])([H])C3([H])[H])c3c([H])c([H])c([H])c([H])c3n2)c([H])c([H])c1OC([H])([H])[H]


 25 28  0  0  0  0  0  0  0  0999 V2000
   -0.3557  -53.1450  -22.0137 C   0  0  0  0  0  0  0  0  0  0  0  0
    0.4236  -52.0606  -22.0364 N   0  0  0  0  0  0  0  0  0  0  0  0
    0.7040  -51.3135  -20.9489 C   0  0  0  0  0  0  0  0  0  0  0  0
    0.1520  -51.6932  -19.7468 C   0  0  0  0  0  0  0  0  0  0  0  0
    0.3782  -50.9825  -18.5979 C   0  0  0  0  0  0  0  0  0  0  0  0
   -0.2139  -51.4141  -17.4233 C   0  0  0  0  0  0  0  0  0  0  0  0
   -1.0166  -52.5221  -17.3639 C   0  0  0  0  0  0  0  0  0  0  0  0
   -1.2538  -53.2424  -18.5019 C   0  0  0  0  0  0  0  0  0  0  0  0
   -0.6677  -52.8253  -19.6959 C   0  0  0  0  0  0  0  0  0  0  0  0
   -0.8749  -53.4887  -20.8370 N   0  0  0  0  0  0  0  0  0  0  0  0
    1.5760  -50.1899  -21.0682 N   0  0  0  0  0  0  0  0  0  0  0  0
    1.2076  -48.8262  -21.2769 C   0  0  0  0  0  0  0  0  0  0  0  0
    2.3903  -47.9929  -20.7776 C   0  0  0  0  0  0  0  0  0  0  0  0
    3.2908  -49.0014  -20.1466 C   0  0  0  0  0  0  0  0  0  0  0  0
    3.0158  -50.2545  -20.9869 C   0  0  0  0  0  0  0  0  0  0  0  0
   -0.6072  -53.8552  -23.2063 N   0  0  0  0  0  0  0  0  0  0  0  0
   -0.9925  -54.8389  -23.0711 H   0  0  0  0  0  0  0  0  0  0  0  0
    0.1010  -52.7833  -27.2648 C   0  0  0  0  0  0  0  0  0  0  0  0
   -0.4586  -51.8799  -26.3977 C   0  0  0  0  0  0  0  0  0  0  0  0
   -0.7178  -52.1939  -25.0529 C   0  0  0  0  0  0  0  0  0  0  0  0
   -0.4215  -53.4280  -24.5358 C   0  0  0  0  0  0  0  0  0  0  0  0
    0.1504  -54.3389  -25.4395 C   0  0  0  0  0  0  0  0  0  0  0  0
    0.4005  -54.0240  -26.7540 C   0  0  0  0  0  0  0  0  0  0  0  0
   -0.5801  -52.7930  -29.6005 C   0  0  0  0  0  0  0  0  0  0  0  0
    0.3510  -52.4591  -28.5892 O   0  0  0  0  0  0  0  0  0  0  0  0
 24 25  1  0  0  0
 25 18  1  0  0  0
 18 19  2  0  0  0
 19 20  1  0  0  0
 20 21  2  0  0  0
 21 16  1  0  0  0
 16  1  1  0  0  0
  1  2  2  0  0  0
  2  3  1  0  0  0
  3 11  1  0  0  0
 11 12  1  0  0  0
 12 13  1  0  0  0
 13 14  1  0  0  0
 14 15  1  0  0  0
  3  4  2  0  0  0
  4  5  1  0  0  0
  5  6  2  0  0  0
  6  7  1  0  0  0
  7  8  2  0  0  0
  8  9  1  0  0  0
  9 10  2  0  0  0
 21 22  1  0  0  0
 22 23  2  0  0  0
 23 18  1  0  0  0
 10  1  1  0  0  0
 15 11  1  0  0  0
  9  4  1  0  0  0
 16 17  1  0  0  0
M  END
> <minimizedAffinity>
-7.59162

> <CNNscore>
0.7624382973

> <CNNaffinity>
6.4417800903

> <CNN_VS>
4.9114599228

> <CNNaffinity_variance>
0.0614427924

$$$$
[H]c1c([H])c(N([H])c2nc(N3C([H])([H])C([H])([H])C([H])([H])C3([H])[H])c3c([H])c([H])c([H])c([H])c3n2)c([H])c([H])c1OC([H])([H])[H]


 25 28  0  0  0  0  0  0  0  0999 V2000
   -0.2869  -53.3832  -21.9535 C   0  0  0  0  0  0  0  0  0  0  0  0
    0.7712  -52.5709  -21.8880 N   0  0  0  0  0  0  0  0  0  0  0  0
    1.1502  -51.9187  -20.7698 C   0  0  0  0  0  0  0  0  0  0  0  0
    0.3993  -52.1024  -19.6312 C   0  0  0  0  0  0  0  0  0  0  0  0
    0.7104  -51.4684  -18.4575 C   0  0  0  0  0  0  0  0  0  0  0  0
   -0.0910  -51.6907  -17.3508 C   0  0  0  0  0  0  0  0  0  0  0  0
   -1.1819  -52.5182  -17.3822 C   0  0  0  0  0  0  0  0  0  0  0  0
   -1.5070  -53.1582  -18.5463 C   0  0  0  0  0  0  0  0  0  0  0  0
   -0.7137  -52.9482  -19.6730 C   0  0  0  0  0  0  0  0  0  0  0  0
   -0.9936  -53.5424  -20.8365 N   0  0  0  0  0  0  0  0  0  0  0  0
    2.3172  -51.0972  -20.7911 N   0  0  0  0  0  0  0  0  0  0  0  0
    3.6506  -51.4784  -20.4512 C   0  0  0  0  0  0  0  0  0  0  0  0
    4.5648  -50.4723  -21.1546 C   0  0  0  0  0  0  0  0  0  0  0  0
    3.6290  -49.6800  -22.0047 C   0  0  0  0  0  0  0  0  0  0  0  0
    2.3368  -49.7069  -21.1791 C   0  0  0  0  0  0  0  0  0  0  0  0
   -0.6176  -54.0102  -23.1731 N   0  0  0  0  0  0  0  0  0  0  0  0
   -1.0729  -54.9682  -23.0771 H   0  0  0  0  0  0  0  0  0  0  0  0
    0.0689  -52.7902  -27.1934 C   0  0  0  0  0  0  0  0  0  0  0  0
   -0.3505  -51.8810  -26.2560 C   0  0  0  0  0  0  0  0  0  0  0  0
   -0.5975  -52.2416  -24.9206 C   0  0  0  0  0  0  0  0  0  0  0  0
   -0.4297  -53.5298  -24.4840 C   0  0  0  0  0  0  0  0  0  0  0  0
   -0.0003  -54.4457  -25.4588 C   0  0  0  0  0  0  0  0  0  0  0  0
    0.2389  -54.0849  -26.7635 C   0  0  0  0  0  0  0  0  0  0  0  0
   -0.6011  -52.7706  -29.5322 C   0  0  0  0  0  0  0  0  0  0  0  0
    0.3087  -52.4197  -28.5074 O   0  0  0  0  0  0  0  0  0  0  0  0
 24 25  1  0  0  0
 25 18  1  0  0  0
 18 19  2  0  0  0
 19 20  1  0  0  0
 20 21  2  0  0  0
 21 16  1  0  0  0
 16  1  1  0  0  0
  1  2  2  0  0  0
  2  3  1  0  0  0
  3 11  1  0  0  0
 11 12  1  0  0  0
 12 13  1  0  0  0
 13 14  1  0  0  0
 14 15  1  0  0  0
  3  4  2  0  0  0
  4  5  1  0  0  0
  5  6  2  0  0  0
  6  7  1  0  0  0
  7  8  2  0  0  0
  8  9  1  0  0  0
  9 10  2  0  0  0
 21 22  1  0  0  0
 22 23  2  0  0  0
 23 18  1  0  0  0
 10  1  1  0  0  0
 15 11  1  0  0  0
  9  4  1  0  0  0
 16 17  1  0  0  0
M  END
> <minimizedAffinity>
-7.54410

> <CNNscore>
0.7296450734

> <CNNaffinity>
6.5381255150

> <CNN_VS>
4.7705111504

> <CNNaffinity_variance>
0.1278000176

$$$$
[H]c1c([H])c(N([H])c2nc(N3C([H])([H])C([H])([H])C([H])([H])C3([H])[H])c3c([H])c([H])c([H])c([H])c3n2)c([H])c([H])c1OC([H])([H])[H]


 25 28  0  0  0  0  0  0  0  0999 V2000
   -0.6678  -52.8596  -18.8740 C   0  0  0  0  0  0  0  0  0  0  0  0
    0.1060  -51.7991  -19.1193 N   0  0  0  0  0  0  0  0  0  0  0  0
    0.5536  -51.4628  -20.3464 C   0  0  0  0  0  0  0  0  0  0  0  0
    0.1905  -52.2625  -21.4059 C   0  0  0  0  0  0  0  0  0  0  0  0
    0.6117  -51.9967  -22.6820 C   0  0  0  0  0  0  0  0  0  0  0  0
    0.2168  -52.8459  -23.7015 C   0  0  0  0  0  0  0  0  0  0  0  0
   -0.5774  -53.9406  -23.4858 C   0  0  0  0  0  0  0  0  0  0  0  0
   -1.0058  -54.2211  -22.2177 C   0  0  0  0  0  0  0  0  0  0  0  0
   -0.6196  -53.3792  -21.1760 C   0  0  0  0  0  0  0  0  0  0  0  0
   -1.0036  -53.6141  -19.9181 N   0  0  0  0  0  0  0  0  0  0  0  0
    1.3495  -50.2897  -20.5124 N   0  0  0  0  0  0  0  0  0  0  0  0
    2.7663  -50.1779  -20.3737 C   0  0  0  0  0  0  0  0  0  0  0  0
    3.1676  -48.9368  -21.1745 C   0  0  0  0  0  0  0  0  0  0  0  0
    1.9059  -48.5390  -21.8643 C   0  0  0  0  0  0  0  0  0  0  0  0
    0.8327  -48.9889  -20.8653 C   0  0  0  0  0  0  0  0  0  0  0  0
   -1.0740  -53.1432  -17.5532 N   0  0  0  0  0  0  0  0  0  0  0  0
   -0.5910  -53.9792  -17.1038 H   0  0  0  0  0  0  0  0  0  0  0  0
   -4.1271  -51.2210  -15.2934 C   0  0  0  0  0  0  0  0  0  0  0  0
   -2.8353  -50.7628  -15.2421 C   0  0  0  0  0  0  0  0  0  0  0  0
   -1.7952  -51.3718  -15.9642 C   0  0  0  0  0  0  0  0  0  0  0  0
   -2.0210  -52.4624  -16.7629 C   0  0  0  0  0  0  0  0  0  0  0  0
   -3.3498  -52.9165  -16.8017 C   0  0  0  0  0  0  0  0  0  0  0  0
   -4.3618  -52.3152  -16.0918 C   0  0  0  0  0  0  0  0  0  0  0  0
   -4.8791  -50.0119  -13.3206 C   0  0  0  0  0  0  0  0  0  0  0  0
   -5.1430  -50.6096  -14.5753 O   0  0  0  0  0  0  0  0  0  0  0  0
 24 25  1  0  0  0
 25 18  1  0  0  0
 18 19  2  0  0  0
 19 20  1  0  0  0
 20 21  2  0  0  0
 21 16  1  0  0  0
 16  1  1  0  0  0
  1  2  2  0  0  0
  2  3  1  0  0  0
  3 11  1  0  0  0
 11 12  1  0  0  0
 12 13  1  0  0  0
 13 14  1  0  0  0
 14 15  1  0  0  0
  3  4  2  0  0  0
  4  5  1  0  0  0
  5  6  2  0  0  0
  6  7  1  0  0  0
  7  8  2  0  0  0
  8  9  1  0  0  0
  9 10  2  0  0  0
 21 22  1  0  0  0
 22 23  2  0  0  0
 23 18  1  0  0  0
 10  1  1  0  0  0
 15 11  1  0  0  0
  9  4  1  0  0  0
 16 17  1  0  0  0
M  END
> <minimizedAffinity>
-7.55103

> <CNNscore>
0.7068243623

> <CNNaffinity>
5.8919239044

> <CNN_VS>
4.1645555496

> <CNNaffinity_variance>
0.1311160773

$$$$
[H]c1c([H])c(N([H])c2nc(N3C([H])([H])C([H])([H])C([H])([H])C3([H])[H])c3c([H])c([H])c([H])c([H])c3n2)c([H])c([H])c1OC([H])([H])[H]


 25 28  0  0  0  0  0  0  0  0999 V2000
   -0.3502  -52.5759  -21.6064 C   0  0  0  0  0  0  0  0  0  0  0  0
    0.4506  -51.5072  -21.6233 N   0  0  0  0  0  0  0  0  0  0  0  0
    0.8062  -50.8168  -20.5205 C   0  0  0  0  0  0  0  0  0  0  0  0
    0.3121  -51.2407  -19.3080 C   0  0  0  0  0  0  0  0  0  0  0  0
    0.6163  -50.5884  -18.1425 C   0  0  0  0  0  0  0  0  0  0  0  0
    0.0795  -51.0621  -16.9576 C   0  0  0  0  0  0  0  0  0  0  0  0
   -0.7431  -52.1558  -16.9038 C   0  0  0  0  0  0  0  0  0  0  0  0
   -1.0578  -52.8179  -18.0583 C   0  0  0  0  0  0  0  0  0  0  0  0
   -0.5284  -52.3576  -19.2628 C   0  0  0  0  0  0  0  0  0  0  0  0
   -0.8120  -52.9633  -20.4194 N   0  0  0  0  0  0  0  0  0  0  0  0
    1.6951  -49.7061  -20.6371 N   0  0  0  0  0  0  0  0  0  0  0  0
    3.1147  -49.7134  -20.4835 C   0  0  0  0  0  0  0  0  0  0  0  0
    3.6224  -48.4805  -21.2350 C   0  0  0  0  0  0  0  0  0  0  0  0
    2.4039  -47.9582  -21.9195 C   0  0  0  0  0  0  0  0  0  0  0  0
    1.2877  -48.3561  -20.9459 C   0  0  0  0  0  0  0  0  0  0  0  0
   -0.6818  -53.2252  -22.8140 N   0  0  0  0  0  0  0  0  0  0  0  0
   -1.3982  -54.0079  -22.7217 H   0  0  0  0  0  0  0  0  0  0  0  0
    1.0318  -52.5071  -26.6442 C   0  0  0  0  0  0  0  0  0  0  0  0
   -0.2521  -52.1071  -26.3741 C   0  0  0  0  0  0  0  0  0  0  0  0
   -0.8600  -52.3314  -25.1274 C   0  0  0  0  0  0  0  0  0  0  0  0
   -0.1953  -52.9654  -24.1103 C   0  0  0  0  0  0  0  0  0  0  0  0
    1.1177  -53.3675  -24.4067 C   0  0  0  0  0  0  0  0  0  0  0  0
    1.7052  -53.1446  -25.6293 C   0  0  0  0  0  0  0  0  0  0  0  0
    2.9634  -52.6472  -28.1169 C   0  0  0  0  0  0  0  0  0  0  0  0
    1.6184  -52.2788  -27.8792 O   0  0  0  0  0  0  0  0  0  0  0  0
 24 25  1  0  0  0
 25 18  1  0  0  0
 18 19  2  0  0  0
 19 20  1  0  0  0
 20 21  2  0  0  0
 21 16  1  0  0  0
 16  1  1  0  0  0
  1  2  2  0  0  0
  2  3  1  0  0  0
  3 11  1  0  0  0
 11 12  1  0  0  0
 12 13  1  0  0  0
 13 14  1  0  0  0
 14 15  1  0  0  0
  3  4  2  0  0  0
  4  5  1  0  0  0
  5  6  2  0  0  0
  6  7  1  0  0  0
  7  8  2  0  0  0
  8  9  1  0  0  0
  9 10  2  0  0  0
 21 22  1  0  0  0
 22 23  2  0  0  0
 23 18  1  0  0  0
 10  1  1  0  0  0
 15 11  1  0  0  0
  9  4  1  0  0  0
 16 17  1  0  0  0
M  END
> <minimizedAffinity>
-6.96061

> <CNNscore>
0.4881509542

> <CNNaffinity>
6.0847058296

> <CNN_VS>
2.9702548981

> <CNNaffinity_variance>
0.2262887508

$$$$
[H]c1c([H])c(N([H])c2nc(N3C([H])([H])C([H])([H])C([H])([H])C3([H])[H])c3c([H])c([H])c([H])c([H])c3n2)c([H])c([H])c1OC([H])([H])[H]


 25 28  0  0  0  0  0  0  0  0999 V2000
    0.5129  -52.7208  -20.8602 C   0  0  0  0  0  0  0  0  0  0  0  0
   -0.0477  -52.9366  -22.0531 N   0  0  0  0  0  0  0  0  0  0  0  0
    0.5207  -52.5868  -23.2252 C   0  0  0  0  0  0  0  0  0  0  0  0
    1.7505  -51.9703  -23.1860 C   0  0  0  0  0  0  0  0  0  0  0  0
    2.3903  -51.5738  -24.3305 C   0  0  0  0  0  0  0  0  0  0  0  0
    3.6222  -50.9518  -24.2204 C   0  0  0  0  0  0  0  0  0  0  0  0
    4.2264  -50.7167  -23.0140 C   0  0  0  0  0  0  0  0  0  0  0  0
    3.6008  -51.1051  -21.8616 C   0  0  0  0  0  0  0  0  0  0  0  0
    2.3594  -51.7330  -21.9495 C   0  0  0  0  0  0  0  0  0  0  0  0
    1.7027  -52.1237  -20.8535 N   0  0  0  0  0  0  0  0  0  0  0  0
   -0.1430  -52.8903  -24.4518 N   0  0  0  0  0  0  0  0  0  0  0  0
   -0.8585  -51.9875  -25.2955 C   0  0  0  0  0  0  0  0  0  0  0  0
   -0.8749  -52.6356  -26.6820 C   0  0  0  0  0  0  0  0  0  0  0  0
    0.0203  -53.8193  -26.5285 C   0  0  0  0  0  0  0  0  0  0  0  0
   -0.1918  -54.1995  -25.0579 C   0  0  0  0  0  0  0  0  0  0  0  0
   -0.1650  -53.1061  -19.6847 N   0  0  0  0  0  0  0  0  0  0  0  0
   -0.5469  -54.1003  -19.6913 H   0  0  0  0  0  0  0  0  0  0  0  0
   -0.6478  -50.6643  -16.2312 C   0  0  0  0  0  0  0  0  0  0  0  0
   -1.2778  -51.8798  -16.3132 C   0  0  0  0  0  0  0  0  0  0  0  0
   -1.1535  -52.7138  -17.4372 C   0  0  0  0  0  0  0  0  0  0  0  0
   -0.3899  -52.3520  -18.5162 C   0  0  0  0  0  0  0  0  0  0  0  0
    0.2465  -51.1038  -18.4132 C   0  0  0  0  0  0  0  0  0  0  0  0
    0.1195  -50.2936  -17.3100 C   0  0  0  0  0  0  0  0  0  0  0  0
   -1.9115  -49.9630  -14.2739 C   0  0  0  0  0  0  0  0  0  0  0  0
   -0.7798  -49.8522  -15.1155 O   0  0  0  0  0  0  0  0  0  0  0  0
 24 25  1  0  0  0
 25 18  1  0  0  0
 18 19  2  0  0  0
 19 20  1  0  0  0
 20 21  2  0  0  0
 21 16  1  0  0  0
 16  1  1  0  0  0
  1  2  2  0  0  0
  2  3  1  0  0  0
  3 11  1  0  0  0
 11 12  1  0  0  0
 12 13  1  0  0  0
 13 14  1  0  0  0
 14 15  1  0  0  0
  3  4  2  0  0  0
  4  5  1  0  0  0
  5  6  2  0  0  0
  6  7  1  0  0  0
  7  8  2  0  0  0
  8  9  1  0  0  0
  9 10  2  0  0  0
 21 22  1  0  0  0
 22 23  2  0  0  0
 23 18  1  0  0  0
 10  1  1  0  0  0
 15 11  1  0  0  0
  9  4  1  0  0  0
 16 17  1  0  0  0
M  END
> <minimizedAffinity>
-6.73735

> <CNNscore>
0.4480111897

> <CNNaffinity>
6.1299147606

> <CNN_VS>
2.7462704182

> <CNNaffinity_variance>
0.2691645622

$$$$
[H]c1c([H])c(N([H])c2nc(N3C([H])([H])C([H])([H])C([H])([H])C3([H])[H])c3c([H])c([H])c([H])c([H])c3n2)c([H])c([H])c1OC([H])([H])[H]


 25 28  0  0  0  0  0  0  0  0999 V2000
   -0.1475  -52.8862  -19.0492 C   0  0  0  0  0  0  0  0  0  0  0  0
   -1.0820  -52.8966  -18.0951 N   0  0  0  0  0  0  0  0  0  0  0  0
   -1.1875  -51.9541  -17.1359 C   0  0  0  0  0  0  0  0  0  0  0  0
   -0.2761  -50.9229  -17.1432 C   0  0  0  0  0  0  0  0  0  0  0  0
   -0.3075  -49.9320  -16.1980 C   0  0  0  0  0  0  0  0  0  0  0  0
    0.6435  -48.9278  -16.2577 C   0  0  0  0  0  0  0  0  0  0  0  0
    1.6142  -48.8854  -17.2230 C   0  0  0  0  0  0  0  0  0  0  0  0
    1.6604  -49.8675  -18.1736 C   0  0  0  0  0  0  0  0  0  0  0  0
    0.7124  -50.8885  -18.1319 C   0  0  0  0  0  0  0  0  0  0  0  0
    0.7195  -51.8762  -19.0317 N   0  0  0  0  0  0  0  0  0  0  0  0
   -2.2425  -52.0346  -16.1779 N   0  0  0  0  0  0  0  0  0  0  0  0
   -2.1862  -51.6794  -14.7961 C   0  0  0  0  0  0  0  0  0  0  0  0
   -3.6328  -51.4105  -14.3747 C   0  0  0  0  0  0  0  0  0  0  0  0
   -4.3917  -51.4757  -15.6577 C   0  0  0  0  0  0  0  0  0  0  0  0
   -3.5798  -52.4962  -16.4648 C   0  0  0  0  0  0  0  0  0  0  0  0
   -0.1040  -53.9254  -20.0021 N   0  0  0  0  0  0  0  0  0  0  0  0
    0.0103  -54.9033  -19.5961 H   0  0  0  0  0  0  0  0  0  0  0  0
   -0.5092  -53.8838  -24.2397 C   0  0  0  0  0  0  0  0  0  0  0  0
    0.2695  -52.9470  -23.6094 C   0  0  0  0  0  0  0  0  0  0  0  0
    0.4243  -52.9182  -22.2132 C   0  0  0  0  0  0  0  0  0  0  0  0
   -0.1993  -53.8323  -21.4046 C   0  0  0  0  0  0  0  0  0  0  0  0
   -0.9923  -54.7828  -22.0688 C   0  0  0  0  0  0  0  0  0  0  0  0
   -1.1388  -54.8040  -23.4355 C   0  0  0  0  0  0  0  0  0  0  0  0
   -0.8967  -52.7025  -26.3310 C   0  0  0  0  0  0  0  0  0  0  0  0
   -0.6524  -53.8998  -25.6184 O   0  0  0  0  0  0  0  0  0  0  0  0
 24 25  1  0  0  0
 25 18  1  0  0  0
 18 19  2  0  0  0
 19 20  1  0  0  0
 20 21  2  0  0  0
 21 16  1  0  0  0
 16  1  1  0  0  0
  1  2  2  0  0  0
  2  3  1  0  0  0
  3 11  1  0  0  0
 11 12  1  0  0  0
 12 13  1  0  0  0
 13 14  1  0  0  0
 14 15  1  0  0  0
  3  4  2  0  0  0
  4  5  1  0  0  0
  5  6  2  0  0  0
  6  7  1  0  0  0
  7  8  2  0  0  0
  8  9  1  0  0  0
  9 10  2  0  0  0
 21 22  1  0  0  0
 22 23  2  0  0  0
 23 18  1  0  0  0
 10  1  1  0  0  0
 15 11  1  0  0  0
  9  4  1  0  0  0
 16 17  1  0  0  0
M  END
> <minimizedAffinity>
-7.61458

> <CNNscore>
0.4210131466

> <CNNaffinity>
5.7636494637

> <CNN_VS>
2.4265720844

> <CNNaffinity_variance>
0.1455980241

$$$$
[H]c1c([H])c(N([H])c2nc(N3C([H])([H])C([H])([H])C([H])([H])C3([H])[H])c3c([H])c([H])c([H])c([H])c3n2)c([H])c([H])c1OC([H])([H])[H]


 25 28  0  0  0  0  0  0  0  0999 V2000
    0.1714  -52.5211  -22.0490 C   0  0  0  0  0  0  0  0  0  0  0  0
    1.3737  -52.0571  -22.3996 N   0  0  0  0  0  0  0  0  0  0  0  0
    2.2179  -51.4382  -21.5489 C   0  0  0  0  0  0  0  0  0  0  0  0
    1.8130  -51.2760  -20.2437 C   0  0  0  0  0  0  0  0  0  0  0  0
    2.6063  -50.6487  -19.3198 C   0  0  0  0  0  0  0  0  0  0  0  0
    2.1355  -50.5113  -18.0252 C   0  0  0  0  0  0  0  0  0  0  0  0
    0.9091  -50.9767  -17.6313 C   0  0  0  0  0  0  0  0  0  0  0  0
    0.1041  -51.6045  -18.5413 C   0  0  0  0  0  0  0  0  0  0  0  0
    0.5585  -51.7532  -19.8507 C   0  0  0  0  0  0  0  0  0  0  0  0
   -0.1929  -52.3508  -20.7799 N   0  0  0  0  0  0  0  0  0  0  0  0
    3.4975  -51.0064  -22.0111 N   0  0  0  0  0  0  0  0  0  0  0  0
    3.8338  -49.7343  -22.5655 C   0  0  0  0  0  0  0  0  0  0  0  0
    5.3438  -49.5790  -22.3690 C   0  0  0  0  0  0  0  0  0  0  0  0
    5.7132  -50.7568  -21.5308 C   0  0  0  0  0  0  0  0  0  0  0  0
    4.6957  -51.8111  -21.9840 C   0  0  0  0  0  0  0  0  0  0  0  0
   -0.6516  -53.1405  -23.0128 N   0  0  0  0  0  0  0  0  0  0  0  0
   -1.4937  -53.6596  -22.6182 H   0  0  0  0  0  0  0  0  0  0  0  0
   -0.0875  -53.4113  -27.2236 C   0  0  0  0  0  0  0  0  0  0  0  0
   -0.4842  -52.2289  -26.6528 C   0  0  0  0  0  0  0  0  0  0  0  0
   -0.6907  -52.0970  -25.2693 C   0  0  0  0  0  0  0  0  0  0  0  0
   -0.5040  -53.1512  -24.4137 C   0  0  0  0  0  0  0  0  0  0  0  0
   -0.0983  -54.3531  -25.0174 C   0  0  0  0  0  0  0  0  0  0  0  0
    0.1013  -54.4740  -26.3721 C   0  0  0  0  0  0  0  0  0  0  0  0
   -0.6195  -52.7225  -29.4955 C   0  0  0  0  0  0  0  0  0  0  0  0
    0.1125  -53.5263  -28.5904 O   0  0  0  0  0  0  0  0  0  0  0  0
 24 25  1  0  0  0
 25 18  1  0  0  0
 18 19  2  0  0  0
 19 20  1  0  0  0
 20 21  2  0  0  0
 21 16  1  0  0  0
 16  1  1  0  0  0
  1  2  2  0  0  0
  2  3  1  0  0  0
  3 11  1  0  0  0
 11 12  1  0  0  0
 12 13  1  0  0  0
 13 14  1  0  0  0
 14 15  1  0  0  0
  3  4  2  0  0  0
  4  5  1  0  0  0
  5  6  2  0  0  0
  6  7  1  0  0  0
  7  8  2  0  0  0
  8  9  1  0  0  0
  9 10  2  0  0  0
 21 22  1  0  0  0
 22 23  2  0  0  0
 23 18  1  0  0  0
 10  1  1  0  0  0
 15 11  1  0  0  0
  9  4  1  0  0  0
 16 17  1  0  0  0
M  END
> <minimizedAffinity>
-7.06998

> <CNNscore>
0.3467349410

> <CNNaffinity>
6.1177968979

> <CNN_VS>
2.1212539673

> <CNNaffinity_variance>
0.1716604531

$$$$
[H]c1c([H])c(N([H])c2nc(N3C([H])([H])C([H])([H])C([H])([H])C3([H])[H])c3c([H])c([H])c([H])c([H])c3n2)c([H])c([H])c1OC([H])([H])[H]


 25 28  0  0  0  0  0  0  0  0999 V2000
    0.2891  -52.8988  -23.6632 C   0  0  0  0  0  0  0  0  0  0  0  0
    1.5322  -52.4222  -23.5568 N   0  0  0  0  0  0  0  0  0  0  0  0
    2.4025  -52.3562  -24.5851 C   0  0  0  0  0  0  0  0  0  0  0  0
    1.9820  -52.8085  -25.8149 C   0  0  0  0  0  0  0  0  0  0  0  0
    2.8078  -52.7863  -26.9076 C   0  0  0  0  0  0  0  0  0  0  0  0
    2.3249  -53.2638  -28.1140 C   0  0  0  0  0  0  0  0  0  0  0  0
    1.0557  -53.7575  -28.2589 C   0  0  0  0  0  0  0  0  0  0  0  0
    0.2185  -53.7878  -27.1778 C   0  0  0  0  0  0  0  0  0  0  0  0
    0.6846  -53.3122  -25.9532 C   0  0  0  0  0  0  0  0  0  0  0  0
   -0.0902  -53.3282  -24.8648 N   0  0  0  0  0  0  0  0  0  0  0  0
    3.7003  -51.7988  -24.3790 N   0  0  0  0  0  0  0  0  0  0  0  0
    4.1160  -50.4563  -24.6316 C   0  0  0  0  0  0  0  0  0  0  0  0
    5.3496  -50.2292  -23.7545 C   0  0  0  0  0  0  0  0  0  0  0  0
    5.4216  -51.4642  -22.9205 C   0  0  0  0  0  0  0  0  0  0  0  0
    4.8338  -52.5255  -23.8587 C   0  0  0  0  0  0  0  0  0  0  0  0
   -0.5459  -52.9448  -22.5271 N   0  0  0  0  0  0  0  0  0  0  0  0
   -1.4742  -53.4466  -22.6714 H   0  0  0  0  0  0  0  0  0  0  0  0
    0.0465  -51.5743  -18.5405 C   0  0  0  0  0  0  0  0  0  0  0  0
    0.3587  -50.7663  -19.6039 C   0  0  0  0  0  0  0  0  0  0  0  0
    0.1876  -51.1810  -20.9355 C   0  0  0  0  0  0  0  0  0  0  0  0
   -0.3044  -52.4231  -21.2410 C   0  0  0  0  0  0  0  0  0  0  0  0
   -0.6177  -53.2355  -20.1384 C   0  0  0  0  0  0  0  0  0  0  0  0
   -0.4470  -52.8223  -18.8385 C   0  0  0  0  0  0  0  0  0  0  0  0
   -0.8697  -51.1290  -16.3310 C   0  0  0  0  0  0  0  0  0  0  0  0
    0.2207  -51.1513  -17.2319 O   0  0  0  0  0  0  0  0  0  0  0  0
 24 25  1  0  0  0
 25 18  1  0  0  0
 18 19  2  0  0  0
 19 20  1  0  0  0
 20 21  2  0  0  0
 21 16  1  0  0  0
 16  1  1  0  0  0
  1  2  2  0  0  0
  2  3  1  0  0  0
  3 11  1  0  0  0
 11 12  1  0  0  0
 12 13  1  0  0  0
 13 14  1  0  0  0
 14 15  1  0  0  0
  3  4  2  0  0  0
  4  5  1  0  0  0
  5  6  2  0  0  0
  6  7  1  0  0  0
  7  8  2  0  0  0
  8  9  1  0  0  0
  9 10  2  0  0  0
 21 22  1  0  0  0
 22 23  2  0  0  0
 23 18  1  0  0  0
 10  1  1  0  0  0
 15 11  1  0  0  0
  9  4  1  0  0  0
 16 17  1  0  0  0
M  END
> <minimizedAffinity>
-7.21630

> <CNNscore>
0.3428823054

> <CNNaffinity>
6.1858282089

> <CNN_VS>
2.1210110188

> <CNNaffinity_variance>
0.1240890771

$$$$
[H]c1c([H])c(N([H])c2nc(N3C([H])([H])C([H])([H])C([H])([H])C3([H])[H])c3c([H])c([H])c([H])c([H])c3n2)c([H])c([H])c1OC([H])([H])[H]


 25 28  0  0  0  0  0  0  0  0999 V2000
    0.3378  -52.7799  -20.7063 C   0  0  0  0  0  0  0  0  0  0  0  0
    1.5420  -52.2051  -20.7623 N   0  0  0  0  0  0  0  0  0  0  0  0
    2.0839  -51.7037  -21.8911 C   0  0  0  0  0  0  0  0  0  0  0  0
    1.3504  -51.7921  -23.0522 C   0  0  0  0  0  0  0  0  0  0  0  0
    1.8331  -51.3171  -24.2429 C   0  0  0  0  0  0  0  0  0  0  0  0
    1.0474  -51.4447  -25.3755 C   0  0  0  0  0  0  0  0  0  0  0  0
   -0.1922  -52.0267  -25.3536 C   0  0  0  0  0  0  0  0  0  0  0  0
   -0.6887  -52.5071  -24.1734 C   0  0  0  0  0  0  0  0  0  0  0  0
    0.0861  -52.3893  -23.0206 C   0  0  0  0  0  0  0  0  0  0  0  0
   -0.3490  -52.8504  -21.8445 N   0  0  0  0  0  0  0  0  0  0  0  0
    3.3657  -51.0775  -21.8431 N   0  0  0  0  0  0  0  0  0  0  0  0
    4.6385  -51.6945  -22.0381 C   0  0  0  0  0  0  0  0  0  0  0  0
    5.5917  -50.5671  -22.4418 C   0  0  0  0  0  0  0  0  0  0  0  0
    4.6924  -49.3888  -22.6114 C   0  0  0  0  0  0  0  0  0  0  0  0
    3.5858  -49.6738  -21.5884 C   0  0  0  0  0  0  0  0  0  0  0  0
   -0.1405  -53.2924  -19.4822 N   0  0  0  0  0  0  0  0  0  0  0  0
   -0.1506  -54.3551  -19.4128 H   0  0  0  0  0  0  0  0  0  0  0  0
   -1.2844  -51.0027  -16.0805 C   0  0  0  0  0  0  0  0  0  0  0  0
   -1.9792  -52.1363  -16.4175 C   0  0  0  0  0  0  0  0  0  0  0  0
   -1.6419  -52.9168  -17.5361 C   0  0  0  0  0  0  0  0  0  0  0  0
   -0.5933  -52.5825  -18.3527 C   0  0  0  0  0  0  0  0  0  0  0  0
    0.1051  -51.4184  -17.9911 C   0  0  0  0  0  0  0  0  0  0  0  0
   -0.2314  -50.6600  -16.8951 C   0  0  0  0  0  0  0  0  0  0  0  0
   -2.0602  -48.9039  -15.1251 C   0  0  0  0  0  0  0  0  0  0  0  0
   -1.6288  -50.2426  -14.9736 O   0  0  0  0  0  0  0  0  0  0  0  0
 24 25  1  0  0  0
 25 18  1  0  0  0
 18 19  2  0  0  0
 19 20  1  0  0  0
 20 21  2  0  0  0
 21 16  1  0  0  0
 16  1  1  0  0  0
  1  2  2  0  0  0
  2  3  1  0  0  0
  3 11  1  0  0  0
 11 12  1  0  0  0
 12 13  1  0  0  0
 13 14  1  0  0  0
 14 15  1  0  0  0
  3  4  2  0  0  0
  4  5  1  0  0  0
  5  6  2  0  0  0
  6  7  1  0  0  0
  7  8  2  0  0  0
  8  9  1  0  0  0
  9 10  2  0  0  0
 21 22  1  0  0  0
 22 23  2  0  0  0
 23 18  1  0  0  0
 10  1  1  0  0  0
 15 11  1  0  0  0
  9  4  1  0  0  0
 16 17  1  0  0  0
M  END
> <minimizedAffinity>
-6.77011

> <CNNscore>
0.3083510995

> <CNNaffinity>
5.8726129532

> <CNN_VS>
1.8108266592

> <CNNaffinity_variance>
0.2640507817

$$$$
[H]OC12N(C([H])([H])c3c([H])c([H])c(OC([H])([H])[H])c([H])c3[H])C3([H])C4([H])C5([H])C([H])([H])C([H])(C14[H])C1([H])C2([H])C3([H])C51[H]


 23 29  0  0  0  0  0  0  0  0999 V2000
    0.6688  -51.8046  -22.5448 N   0  0  0  0  0  0  0  0  0  0  0  0
    0.8970  -51.3664  -21.1745 C   0  0  0  0  0  0  0  0  0  0  0  0
   -0.5176  -51.4636  -20.6463 C   0  0  0  0  0  0  0  0  0  0  0  0
   -0.3606  -51.9076  -19.2210 C   0  0  0  0  0  0  0  0  0  0  0  0
   -1.5665  -52.8458  -19.0902 C   0  0  0  0  0  0  0  0  0  0  0  0
   -1.2313  -53.7082  -20.3161 C   0  0  0  0  0  0  0  0  0  0  0  0
    0.1846  -54.0931  -20.0289 C   0  0  0  0  0  0  0  0  0  0  0  0
    0.7669  -52.8798  -19.2896 C   0  0  0  0  0  0  0  0  0  0  0  0
    1.5726  -52.5168  -20.4997 C   0  0  0  0  0  0  0  0  0  0  0  0
    0.9923  -53.7332  -21.2250 C   0  0  0  0  0  0  0  0  0  0  0  0
    0.0888  -53.0912  -22.2466 C   0  0  0  0  0  0  0  0  0  0  0  0
   -0.2609  -53.8684  -23.2900 O   0  0  0  0  0  0  0  0  0  0  0  0
   -1.0892  -52.6656  -21.3721 C   0  0  0  0  0  0  0  0  0  0  0  0
   -0.0253  -54.8150  -23.1297 H   0  0  0  0  0  0  0  0  0  0  0  0
    1.8620  -51.8294  -23.3245 C   0  0  0  0  0  0  0  0  0  0  0  0
    0.7988  -52.3517  -27.4707 C   0  0  0  0  0  0  0  0  0  0  0  0
    0.0762  -51.5179  -26.6458 C   0  0  0  0  0  0  0  0  0  0  0  0
    0.4125  -51.3524  -25.3201 C   0  0  0  0  0  0  0  0  0  0  0  0
    1.4942  -52.0160  -24.7493 C   0  0  0  0  0  0  0  0  0  0  0  0
    2.2120  -52.8553  -25.6030 C   0  0  0  0  0  0  0  0  0  0  0  0
    1.8735  -53.0188  -26.9278 C   0  0  0  0  0  0  0  0  0  0  0  0
   -0.7328  -53.1974  -29.1896 C   0  0  0  0  0  0  0  0  0  0  0  0
    0.4432  -52.5083  -28.8160 O   0  0  0  0  0  0  0  0  0  0  0  0
 22 23  1  0  0  0
 23 16  1  0  0  0
 16 17  2  0  0  0
 17 18  1  0  0  0
 18 19  2  0  0  0
 19 15  1  0  0  0
 15  1  1  0  0  0
  1  2  1  0  0  0
  2  3  1  0  0  0
  3  4  1  0  0  0
  4  5  1  0  0  0
  5  6  1  0  0  0
  6  7  1  0  0  0
  7  8  1  0  0  0
  8  9  1  0  0  0
  9 10  1  0  0  0
 10 11  1  0  0  0
 11 12  1  0  0  0
 11 13  1  0  0  0
 19 20  1  0  0  0
 20 21  2  0  0  0
 21 16  1  0  0  0
 11  1  1  0  0  0
  9  2  1  0  0  0
 13  3  1  0  0  0
  8  4  1  0  0  0
 13  6  1  0  0  0
 10  7  1  0  0  0
 12 14  1  0  0  0
M  END
> <minimizedAffinity>
-6.09127

> <CNNscore>
0.3269854784

> <CNNaffinity>
5.3927359581

> <CNN_VS>
1.7633463144

> <CNNaffinity_variance>
0.0555024631

$$$$
[H]OC12N(C([H])([H])c3c([H])c([H])c(OC([H])([H])[H])c([H])c3[H])C3([H])C4([H])C5([H])C([H])([H])C([H])(C14[H])C1([H])C2([H])C3([H])C51[H]


 23 29  0  0  0  0  0  0  0  0999 V2000
    0.3299  -53.7120  -24.2307 N   0  0  0  0  0  0  0  0  0  0  0  0
    0.9509  -52.4097  -24.4315 C   0  0  0  0  0  0  0  0  0  0  0  0
    2.1117  -52.8234  -25.3094 C   0  0  0  0  0  0  0  0  0  0  0  0
    2.2925  -51.6788  -26.2637 C   0  0  0  0  0  0  0  0  0  0  0  0
    2.6616  -52.4414  -27.5418 C   0  0  0  0  0  0  0  0  0  0  0  0
    1.4465  -53.3806  -27.5239 C   0  0  0  0  0  0  0  0  0  0  0  0
    0.3199  -52.4047  -27.4076 C   0  0  0  0  0  0  0  0  0  0  0  0
    0.8935  -51.2594  -26.5608 C   0  0  0  0  0  0  0  0  0  0  0  0
    0.0594  -51.6917  -25.3934 C   0  0  0  0  0  0  0  0  0  0  0  0
   -0.5120  -52.8252  -26.2484 C   0  0  0  0  0  0  0  0  0  0  0  0
    0.1131  -54.0433  -25.6178 C   0  0  0  0  0  0  0  0  0  0  0  0
   -0.4913  -55.2171  -25.8857 O   0  0  0  0  0  0  0  0  0  0  0  0
    1.5422  -53.9497  -26.1493 C   0  0  0  0  0  0  0  0  0  0  0  0
   -1.1481  -55.1256  -26.6189 H   0  0  0  0  0  0  0  0  0  0  0  0
   -0.8406  -53.6484  -23.4193 C   0  0  0  0  0  0  0  0  0  0  0  0
    0.2536  -52.2448  -19.4916 C   0  0  0  0  0  0  0  0  0  0  0  0
   -0.2270  -51.3820  -20.4522 C   0  0  0  0  0  0  0  0  0  0  0  0
   -0.5739  -51.8283  -21.7086 C   0  0  0  0  0  0  0  0  0  0  0  0
   -0.4571  -53.1670  -22.0699 C   0  0  0  0  0  0  0  0  0  0  0  0
    0.0317  -54.0230  -21.0815 C   0  0  0  0  0  0  0  0  0  0  0  0
    0.3777  -53.5742  -19.8264 C   0  0  0  0  0  0  0  0  0  0  0  0
    0.6459  -50.3909  -17.9345 C   0  0  0  0  0  0  0  0  0  0  0  0
    0.6014  -51.7744  -18.2195 O   0  0  0  0  0  0  0  0  0  0  0  0
 22 23  1  0  0  0
 23 16  1  0  0  0
 16 17  2  0  0  0
 17 18  1  0  0  0
 18 19  2  0  0  0
 19 15  1  0  0  0
 15  1  1  0  0  0
  1  2  1  0  0  0
  2  3  1  0  0  0
  3  4  1  0  0  0
  4  5  1  0  0  0
  5  6  1  0  0  0
  6  7  1  0  0  0
  7  8  1  0  0  0
  8  9  1  0  0  0
  9 10  1  0  0  0
 10 11  1  0  0  0
 11 12  1  0  0  0
 11 13  1  0  0  0
 19 20  1  0  0  0
 20 21  2  0  0  0
 21 16  1  0  0  0
 11  1  1  0  0  0
  9  2  1  0  0  0
 13  3  1  0  0  0
  8  4  1  0  0  0
 13  6  1  0  0  0
 10  7  1  0  0  0
 12 14  1  0  0  0
M  END
> <minimizedAffinity>
-7.39203

> <CNNscore>
0.3021238744

> <CNNaffinity>
5.6566572189

> <CNN_VS>
1.7090111971

> <CNNaffinity_variance>
0.1157725453

$$$$
[H]OC12N(C([H])([H])c3c([H])c([H])c(OC([H])([H])[H])c([H])c3[H])C3([H])C4([H])C5([H])C([H])([H])C([H])(C14[H])C1([H])C2([H])C3([H])C51[H]


 23 29  0  0  0  0  0  0  0  0999 V2000
    0.4790  -52.9244  -24.0855 N   0  0  0  0  0  0  0  0  0  0  0  0
    1.0940  -52.0568  -25.0809 C   0  0  0  0  0  0  0  0  0  0  0  0
    1.6650  -53.1095  -26.0057 C   0  0  0  0  0  0  0  0  0  0  0  0
    1.5287  -52.5213  -27.3800 C   0  0  0  0  0  0  0  0  0  0  0  0
    1.1765  -53.7786  -28.1841 C   0  0  0  0  0  0  0  0  0  0  0  0
   -0.0010  -54.2104  -27.2976 C   0  0  0  0  0  0  0  0  0  0  0  0
   -0.8209  -52.9605  -27.2653 C   0  0  0  0  0  0  0  0  0  0  0  0
    0.2119  -51.8256  -27.3234 C   0  0  0  0  0  0  0  0  0  0  0  0
   -0.0427  -51.5070  -25.8815 C   0  0  0  0  0  0  0  0  0  0  0  0
   -1.0758  -52.6353  -25.8364 C   0  0  0  0  0  0  0  0  0  0  0  0
   -0.3864  -53.6614  -24.9738 C   0  0  0  0  0  0  0  0  0  0  0  0
   -1.1853  -54.5962  -24.4235 O   0  0  0  0  0  0  0  0  0  0  0  0
    0.6414  -54.2265  -25.9525 C   0  0  0  0  0  0  0  0  0  0  0  0
   -2.0877  -54.5824  -24.8271 H   0  0  0  0  0  0  0  0  0  0  0  0
   -0.1739  -52.1993  -23.0461 C   0  0  0  0  0  0  0  0  0  0  0  0
    2.5572  -51.7487  -19.7397 C   0  0  0  0  0  0  0  0  0  0  0  0
    2.9407  -51.4563  -21.0301 C   0  0  0  0  0  0  0  0  0  0  0  0
    2.0705  -51.6028  -22.0880 C   0  0  0  0  0  0  0  0  0  0  0  0
    0.7657  -52.0517  -21.9080 C   0  0  0  0  0  0  0  0  0  0  0  0
    0.3987  -52.3420  -20.5929 C   0  0  0  0  0  0  0  0  0  0  0  0
    1.2707  -52.1945  -19.5373 C   0  0  0  0  0  0  0  0  0  0  0  0
    3.1830  -50.7086  -17.6084 C   0  0  0  0  0  0  0  0  0  0  0  0
    3.4545  -51.5940  -18.6759 O   0  0  0  0  0  0  0  0  0  0  0  0
 22 23  1  0  0  0
 23 16  1  0  0  0
 16 17  2  0  0  0
 17 18  1  0  0  0
 18 19  2  0  0  0
 19 15  1  0  0  0
 15  1  1  0  0  0
  1  2  1  0  0  0
  2  3  1  0  0  0
  3  4  1  0  0  0
  4  5  1  0  0  0
  5  6  1  0  0  0
  6  7  1  0  0  0
  7  8  1  0  0  0
  8  9  1  0  0  0
  9 10  1  0  0  0
 10 11  1  0  0  0
 11 12  1  0  0  0
 11 13  1  0  0  0
 19 20  1  0  0  0
 20 21  2  0  0  0
 21 16  1  0  0  0
 11  1  1  0  0  0
  9  2  1  0  0  0
 13  3  1  0  0  0
  8  4  1  0  0  0
 13  6  1  0  0  0
 10  7  1  0  0  0
 12 14  1  0  0  0
M  END
> <minimizedAffinity>
-7.91748

> <CNNscore>
0.2901998758

> <CNNaffinity>
5.6992311478

> <CNN_VS>
1.6539161205

> <CNNaffinity_variance>
0.0291479044

$$$$
[H]OC12N(C([H])([H])c3c([H])c([H])c(OC([H])([H])[H])c([H])c3[H])C3([H])C4([H])C5([H])C([H])([H])C([H])(C14[H])C1([H])C2([H])C3([H])C51[H]


 23 29  0  0  0  0  0  0  0  0999 V2000
    0.6941  -51.1421  -17.4133 N   0  0  0  0  0  0  0  0  0  0  0  0
   -0.5478  -50.7636  -16.7528 C   0  0  0  0  0  0  0  0  0  0  0  0
   -0.3730  -51.5148  -15.4511 C   0  0  0  0  0  0  0  0  0  0  0  0
   -0.9953  -50.6261  -14.4136 C   0  0  0  0  0  0  0  0  0  0  0  0
   -0.0335  -50.8553  -13.2416 C   0  0  0  0  0  0  0  0  0  0  0  0
    1.2485  -50.5248  -14.0202 C   0  0  0  0  0  0  0  0  0  0  0  0
    0.9084  -49.1877  -14.5962 C   0  0  0  0  0  0  0  0  0  0  0  0
   -0.6031  -49.2585  -14.8576 C   0  0  0  0  0  0  0  0  0  0  0  0
   -0.3539  -49.3418  -16.3328 C   0  0  0  0  0  0  0  0  0  0  0  0
    1.1504  -49.2627  -16.0619 C   0  0  0  0  0  0  0  0  0  0  0  0
    1.6080  -50.6565  -16.4084 C   0  0  0  0  0  0  0  0  0  0  0  0
    2.9257  -50.7969  -16.6517 O   0  0  0  0  0  0  0  0  0  0  0  0
    1.1186  -51.4386  -15.1909 C   0  0  0  0  0  0  0  0  0  0  0  0
    3.4310  -49.9932  -16.3761 H   0  0  0  0  0  0  0  0  0  0  0  0
    0.8323  -50.5614  -18.7080 C   0  0  0  0  0  0  0  0  0  0  0  0
   -0.4685  -53.4183  -21.6643 C   0  0  0  0  0  0  0  0  0  0  0  0
   -0.5391  -52.0626  -21.8990 C   0  0  0  0  0  0  0  0  0  0  0  0
   -0.1270  -51.1485  -20.9543 C   0  0  0  0  0  0  0  0  0  0  0  0
    0.3791  -51.5460  -19.7205 C   0  0  0  0  0  0  0  0  0  0  0  0
    0.4416  -52.9236  -19.5042 C   0  0  0  0  0  0  0  0  0  0  0  0
    0.0290  -53.8351  -20.4504 C   0  0  0  0  0  0  0  0  0  0  0  0
   -0.6456  -54.1133  -24.0098 C   0  0  0  0  0  0  0  0  0  0  0  0
   -0.8917  -54.3338  -22.6357 O   0  0  0  0  0  0  0  0  0  0  0  0
 22 23  1  0  0  0
 23 16  1  0  0  0
 16 17  2  0  0  0
 17 18  1  0  0  0
 18 19  2  0  0  0
 19 15  1  0  0  0
 15  1  1  0  0  0
  1  2  1  0  0  0
  2  3  1  0  0  0
  3  4  1  0  0  0
  4  5  1  0  0  0
  5  6  1  0  0  0
  6  7  1  0  0  0
  7  8  1  0  0  0
  8  9  1  0  0  0
  9 10  1  0  0  0
 10 11  1  0  0  0
 11 12  1  0  0  0
 11 13  1  0  0  0
 19 20  1  0  0  0
 20 21  2  0  0  0
 21 16  1  0  0  0
 11  1  1  0  0  0
  9  2  1  0  0  0
 13  3  1  0  0  0
  8  4  1  0  0  0
 13  6  1  0  0  0
 10  7  1  0  0  0
 12 14  1  0  0  0
M  END
> <minimizedAffinity>
-5.75058

> <CNNscore>
0.2862641513

> <CNNaffinity>
5.0940361023

> <CNN_VS>
1.4582399130

> <CNNaffinity_variance>
0.1114113703

$$$$
[H]OC12N(C([H])([H])c3c([H])c([H])c(OC([H])([H])[H])c([H])c3[H])C3([H])C4([H])C5([H])C([H])([H])C([H])(C14[H])C1([H])C2([H])C3([H])C51[H]


 23 29  0  0  0  0  0  0  0  0999 V2000
    0.9622  -51.7903  -23.7845 N   0  0  0  0  0  0  0  0  0  0  0  0
    0.0921  -52.9127  -24.1084 C   0  0  0  0  0  0  0  0  0  0  0  0
   -0.7691  -52.2588  -25.1668 C   0  0  0  0  0  0  0  0  0  0  0  0
   -1.0522  -53.3529  -26.1547 C   0  0  0  0  0  0  0  0  0  0  0  0
   -1.0049  -52.5593  -27.4659 C   0  0  0  0  0  0  0  0  0  0  0  0
    0.3777  -51.9355  -27.2252 C   0  0  0  0  0  0  0  0  0  0  0  0
    1.2020  -53.1477  -26.9311 C   0  0  0  0  0  0  0  0  0  0  0  0
    0.2357  -54.1007  -26.2128 C   0  0  0  0  0  0  0  0  0  0  0  0
    0.9371  -53.8476  -24.9130 C   0  0  0  0  0  0  0  0  0  0  0  0
    1.8998  -52.9058  -25.6400 C   0  0  0  0  0  0  0  0  0  0  0  0
    1.4853  -51.5575  -25.1085 C   0  0  0  0  0  0  0  0  0  0  0  0
    2.3891  -50.5686  -25.2510 O   0  0  0  0  0  0  0  0  0  0  0  0
    0.1875  -51.3231  -25.8794 C   0  0  0  0  0  0  0  0  0  0  0  0
    3.1202  -50.8333  -25.8614 H   0  0  0  0  0  0  0  0  0  0  0  0
    1.9276  -52.1082  -22.7847 C   0  0  0  0  0  0  0  0  0  0  0  0
    0.1008  -51.5821  -18.9143 C   0  0  0  0  0  0  0  0  0  0  0  0
    0.6387  -50.5170  -19.6030 C   0  0  0  0  0  0  0  0  0  0  0  0
    1.2256  -50.6839  -20.8382 C   0  0  0  0  0  0  0  0  0  0  0  0
    1.3049  -51.9310  -21.4503 C   0  0  0  0  0  0  0  0  0  0  0  0
    0.7539  -52.9955  -20.7350 C   0  0  0  0  0  0  0  0  0  0  0  0
    0.1677  -52.8258  -19.5004 C   0  0  0  0  0  0  0  0  0  0  0  0
   -1.1327  -52.4576  -16.9837 C   0  0  0  0  0  0  0  0  0  0  0  0
   -0.4921  -51.3946  -17.6597 O   0  0  0  0  0  0  0  0  0  0  0  0
 22 23  1  0  0  0
 23 16  1  0  0  0
 16 17  2  0  0  0
 17 18  1  0  0  0
 18 19  2  0  0  0
 19 15  1  0  0  0
 15  1  1  0  0  0
  1  2  1  0  0  0
  2  3  1  0  0  0
  3  4  1  0  0  0
  4  5  1  0  0  0
  5  6  1  0  0  0
  6  7  1  0  0  0
  7  8  1  0  0  0
  8  9  1  0  0  0
  9 10  1  0  0  0
 10 11  1  0  0  0
 11 12  1  0  0  0
 11 13  1  0  0  0
 19 20  1  0  0  0
 20 21  2  0  0  0
 21 16  1  0  0  0
 11  1  1  0  0  0
  9  2  1  0  0  0
 13  3  1  0  0  0
  8  4  1  0  0  0
 13  6  1  0  0  0
 10  7  1  0  0  0
 12 14  1  0  0  0
M  END
> <minimizedAffinity>
-6.96498

> <CNNscore>
0.2810574770

> <CNNaffinity>
5.6373796463

> <CNN_VS>
1.5844277143

> <CNNaffinity_variance>
0.0151951043

$$$$
[H]OC12N(C([H])([H])c3c([H])c([H])c(OC([H])([H])[H])c([H])c3[H])C3([H])C4([H])C5([H])C([H])([H])C([H])(C14[H])C1([H])C2([H])C3([H])C51[H]


 23 29  0  0  0  0  0  0  0  0999 V2000
    2.3830  -51.9167  -26.1606 N   0  0  0  0  0  0  0  0  0  0  0  0
    1.3910  -52.1354  -25.1165 C   0  0  0  0  0  0  0  0  0  0  0  0
    0.2084  -51.4364  -25.7507 C   0  0  0  0  0  0  0  0  0  0  0  0
   -0.9819  -52.2503  -25.3332 C   0  0  0  0  0  0  0  0  0  0  0  0
   -1.8298  -52.1725  -26.6085 C   0  0  0  0  0  0  0  0  0  0  0  0
   -0.7290  -52.6597  -27.5622 C   0  0  0  0  0  0  0  0  0  0  0  0
   -0.3020  -53.9290  -26.8974 C   0  0  0  0  0  0  0  0  0  0  0  0
   -0.4758  -53.6507  -25.3973 C   0  0  0  0  0  0  0  0  0  0  0  0
    1.0113  -53.5771  -25.2288 C   0  0  0  0  0  0  0  0  0  0  0  0
    1.1737  -53.8628  -26.7236 C   0  0  0  0  0  0  0  0  0  0  0  0
    1.6660  -52.5378  -27.2473 C   0  0  0  0  0  0  0  0  0  0  0  0
    2.2739  -52.5722  -28.4491 O   0  0  0  0  0  0  0  0  0  0  0  0
    0.3775  -51.7173  -27.2308 C   0  0  0  0  0  0  0  0  0  0  0  0
    2.1341  -53.4412  -28.8993 H   0  0  0  0  0  0  0  0  0  0  0  0
    3.6509  -52.4891  -25.8486 C   0  0  0  0  0  0  0  0  0  0  0  0
    5.3533  -50.3773  -22.4965 C   0  0  0  0  0  0  0  0  0  0  0  0
    5.1560  -51.7403  -22.4588 C   0  0  0  0  0  0  0  0  0  0  0  0
    4.6092  -52.4160  -23.5276 C   0  0  0  0  0  0  0  0  0  0  0  0
    4.2299  -51.7594  -24.6943 C   0  0  0  0  0  0  0  0  0  0  0  0
    4.4387  -50.3793  -24.7106 C   0  0  0  0  0  0  0  0  0  0  0  0
    4.9855  -49.7064  -23.6408 C   0  0  0  0  0  0  0  0  0  0  0  0
    5.1831  -49.5249  -20.2030 C   0  0  0  0  0  0  0  0  0  0  0  0
    5.9104  -49.7062  -21.4011 O   0  0  0  0  0  0  0  0  0  0  0  0
 22 23  1  0  0  0
 23 16  1  0  0  0
 16 17  2  0  0  0
 17 18  1  0  0  0
 18 19  2  0  0  0
 19 15  1  0  0  0
 15  1  1  0  0  0
  1  2  1  0  0  0
  2  3  1  0  0  0
  3  4  1  0  0  0
  4  5  1  0  0  0
  5  6  1  0  0  0
  6  7  1  0  0  0
  7  8  1  0  0  0
  8  9  1  0  0  0
  9 10  1  0  0  0
 10 11  1  0  0  0
 11 12  1  0  0  0
 11 13  1  0  0  0
 19 20  1  0  0  0
 20 21  2  0  0  0
 21 16  1  0  0  0
 11  1  1  0  0  0
  9  2  1  0  0  0
 13  3  1  0  0  0
  8  4  1  0  0  0
 13  6  1  0  0  0
 10  7  1  0  0  0
 12 14  1  0  0  0
M  END
> <minimizedAffinity>
-6.76388

> <CNNscore>
0.2720024884

> <CNNaffinity>
5.5708971024

> <CNN_VS>
1.5152978897

> <CNNaffinity_variance>
0.0412041321

$$$$
[H]OC12N(C([H])([H])c3c([H])c([H])c(OC([H])([H])[H])c([H])c3[H])C3([H])C4([H])C5([H])C([H])([H])C([H])(C14[H])C1([H])C2([H])C3([H])C51[H]


 23 29  0  0  0  0  0  0  0  0999 V2000
   -0.0334  -52.9628  -23.3879 N   0  0  0  0  0  0  0  0  0  0  0  0
   -0.8951  -53.4873  -24.4388 C   0  0  0  0  0  0  0  0  0  0  0  0
   -0.9763  -52.2631  -25.3242 C   0  0  0  0  0  0  0  0  0  0  0  0
   -1.0222  -52.8082  -26.7221 C   0  0  0  0  0  0  0  0  0  0  0  0
   -0.1787  -51.7583  -27.4552 C   0  0  0  0  0  0  0  0  0  0  0  0
    1.0370  -51.8496  -26.5211 C   0  0  0  0  0  0  0  0  0  0  0  0
    1.3076  -53.3200  -26.5305 C   0  0  0  0  0  0  0  0  0  0  0  0
   -0.0804  -53.9621  -26.6684 C   0  0  0  0  0  0  0  0  0  0  0  0
   -0.0278  -54.4061  -25.2382 C   0  0  0  0  0  0  0  0  0  0  0  0
    1.3585  -53.7697  -25.1136 C   0  0  0  0  0  0  0  0  0  0  0  0
    1.0850  -52.5882  -24.2184 C   0  0  0  0  0  0  0  0  0  0  0  0
    2.1602  -52.0572  -23.6043 O   0  0  0  0  0  0  0  0  0  0  0  0
    0.3966  -51.6337  -25.1923 C   0  0  0  0  0  0  0  0  0  0  0  0
    3.0026  -52.4057  -23.9867 H   0  0  0  0  0  0  0  0  0  0  0  0
    0.2452  -53.9214  -22.3701 C   0  0  0  0  0  0  0  0  0  0  0  0
   -0.2419  -52.0517  -18.5150 C   0  0  0  0  0  0  0  0  0  0  0  0
   -1.1850  -52.9244  -19.0119 C   0  0  0  0  0  0  0  0  0  0  0  0
   -1.0325  -53.5201  -20.2447 C   0  0  0  0  0  0  0  0  0  0  0  0
    0.0766  -53.2717  -21.0474 C   0  0  0  0  0  0  0  0  0  0  0  0
    1.0191  -52.3847  -20.5245 C   0  0  0  0  0  0  0  0  0  0  0  0
    0.8642  -51.7907  -19.2918 C   0  0  0  0  0  0  0  0  0  0  0  0
   -1.5084  -51.7871  -16.4314 C   0  0  0  0  0  0  0  0  0  0  0  0
   -0.4126  -51.4551  -17.2598 O   0  0  0  0  0  0  0  0  0  0  0  0
 22 23  1  0  0  0
 23 16  1  0  0  0
 16 17  2  0  0  0
 17 18  1  0  0  0
 18 19  2  0  0  0
 19 15  1  0  0  0
 15  1  1  0  0  0
  1  2  1  0  0  0
  2  3  1  0  0  0
  3  4  1  0  0  0
  4  5  1  0  0  0
  5  6  1  0  0  0
  6  7  1  0  0  0
  7  8  1  0  0  0
  8  9  1  0  0  0
  9 10  1  0  0  0
 10 11  1  0  0  0
 11 12  1  0  0  0
 11 13  1  0  0  0
 19 20  1  0  0  0
 20 21  2  0  0  0
 21 16  1  0  0  0
 11  1  1  0  0  0
  9  2  1  0  0  0
 13  3  1  0  0  0
  8  4  1  0  0  0
 13  6  1  0  0  0
 10  7  1  0  0  0
 12 14  1  0  0  0
M  END
> <minimizedAffinity>
-6.80489

> <CNNscore>
0.2657890320

> <CNNaffinity>
5.6038942337

> <CNN_VS>
1.4894536734

> <CNNaffinity_variance>
0.0544290245

$$$$
[H]OC12N(C([H])([H])c3c([H])c([H])c(OC([H])([H])[H])c([H])c3[H])C3([H])C4([H])C5([H])C([H])([H])C([H])(C14[H])C1([H])C2([H])C3([H])C51[H]


 23 29  0  0  0  0  0  0  0  0999 V2000
    0.3648  -51.9009  -22.3613 N   0  0  0  0  0  0  0  0  0  0  0  0
    1.5423  -51.0468  -22.4375 C   0  0  0  0  0  0  0  0  0  0  0  0
    1.0254  -49.8465  -21.6749 C   0  0  0  0  0  0  0  0  0  0  0  0
    2.2206  -49.3268  -20.9301 C   0  0  0  0  0  0  0  0  0  0  0  0
    1.5589  -48.8912  -19.6171 C   0  0  0  0  0  0  0  0  0  0  0  0
    0.8681  -50.2333  -19.3335 C   0  0  0  0  0  0  0  0  0  0  0  0
    2.0169  -51.1848  -19.4357 C   0  0  0  0  0  0  0  0  0  0  0  0
    2.9265  -50.5703  -20.5094 C   0  0  0  0  0  0  0  0  0  0  0  0
    2.5230  -51.6404  -21.4775 C   0  0  0  0  0  0  0  0  0  0  0  0
    1.6255  -52.2495  -20.3978 C   0  0  0  0  0  0  0  0  0  0  0  0
    0.2461  -51.9458  -20.9243 C   0  0  0  0  0  0  0  0  0  0  0  0
   -0.7539  -52.6875  -20.4096 O   0  0  0  0  0  0  0  0  0  0  0  0
    0.1328  -50.4549  -20.6112 C   0  0  0  0  0  0  0  0  0  0  0  0
   -0.4551  -53.1941  -19.6150 H   0  0  0  0  0  0  0  0  0  0  0  0
    0.5499  -53.1586  -23.0066 C   0  0  0  0  0  0  0  0  0  0  0  0
    0.4075  -52.5756  -27.2767 C   0  0  0  0  0  0  0  0  0  0  0  0
    1.5276  -53.0898  -26.6612 C   0  0  0  0  0  0  0  0  0  0  0  0
    1.5760  -53.2737  -25.2967 C   0  0  0  0  0  0  0  0  0  0  0  0
    0.5009  -52.9507  -24.4743 C   0  0  0  0  0  0  0  0  0  0  0  0
   -0.6231  -52.4314  -25.1189 C   0  0  0  0  0  0  0  0  0  0  0  0
   -0.6687  -52.2487  -26.4831 C   0  0  0  0  0  0  0  0  0  0  0  0
   -0.7478  -52.7830  -29.4303 C   0  0  0  0  0  0  0  0  0  0  0  0
    0.3752  -52.3953  -28.6649 O   0  0  0  0  0  0  0  0  0  0  0  0
 22 23  1  0  0  0
 23 16  1  0  0  0
 16 17  2  0  0  0
 17 18  1  0  0  0
 18 19  2  0  0  0
 19 15  1  0  0  0
 15  1  1  0  0  0
  1  2  1  0  0  0
  2  3  1  0  0  0
  3  4  1  0  0  0
  4  5  1  0  0  0
  5  6  1  0  0  0
  6  7  1  0  0  0
  7  8  1  0  0  0
  8  9  1  0  0  0
  9 10  1  0  0  0
 10 11  1  0  0  0
 11 12  1  0  0  0
 11 13  1  0  0  0
 19 20  1  0  0  0
 20 21  2  0  0  0
 21 16  1  0  0  0
 11  1  1  0  0  0
  9  2  1  0  0  0
 13  3  1  0  0  0
  8  4  1  0  0  0
 13  6  1  0  0  0
 10  7  1  0  0  0
 12 14  1  0  0  0
M  END
> <minimizedAffinity>
-7.25287

> <CNNscore>
0.2604469657

> <CNNaffinity>
5.4554815292

> <CNN_VS>
1.4208636284

> <CNNaffinity_variance>
0.0512031317

$$$$
[H]OC12N(C([H])([H])c3c([H])c([H])c(OC([H])([H])[H])c([H])c3[H])C3([H])C4([H])C5([H])C([H])([H])C([H])(C14[H])C1([H])C2([H])C3([H])C51[H]


 23 29  0  0  0  0  0  0  0  0999 V2000
    0.1469  -53.0280  -23.6853 N   0  0  0  0  0  0  0  0  0  0  0  0
    0.8218  -52.0236  -24.4963 C   0  0  0  0  0  0  0  0  0  0  0  0
    1.6027  -52.9353  -25.4173 C   0  0  0  0  0  0  0  0  0  0  0  0
    1.6130  -52.2220  -26.7380 C   0  0  0  0  0  0  0  0  0  0  0  0
    1.4832  -53.4128  -27.6954 C   0  0  0  0  0  0  0  0  0  0  0  0
    0.2326  -54.0124  -27.0357 C   0  0  0  0  0  0  0  0  0  0  0  0
   -0.6846  -52.8320  -27.0128 C   0  0  0  0  0  0  0  0  0  0  0  0
    0.2481  -51.6283  -26.8147 C   0  0  0  0  0  0  0  0  0  0  0  0
   -0.2326  -51.4756  -25.4037 C   0  0  0  0  0  0  0  0  0  0  0  0
   -1.1644  -52.6714  -25.6140 C   0  0  0  0  0  0  0  0  0  0  0  0
   -0.5205  -53.7293  -24.7547 C   0  0  0  0  0  0  0  0  0  0  0  0
   -1.3085  -54.7681  -24.4154 O   0  0  0  0  0  0  0  0  0  0  0  0
    0.6783  -54.1201  -25.6172 C   0  0  0  0  0  0  0  0  0  0  0  0
   -2.1430  -54.7759  -24.9453 H   0  0  0  0  0  0  0  0  0  0  0  0
   -0.7038  -52.4586  -22.6931 C   0  0  0  0  0  0  0  0  0  0  0  0
    1.7536  -51.0457  -19.4436 C   0  0  0  0  0  0  0  0  0  0  0  0
    1.7713  -52.3672  -19.8326 C   0  0  0  0  0  0  0  0  0  0  0  0
    0.9844  -52.8209  -20.8684 C   0  0  0  0  0  0  0  0  0  0  0  0
    0.1354  -51.9715  -21.5712 C   0  0  0  0  0  0  0  0  0  0  0  0
    0.1334  -50.6375  -21.1604 C   0  0  0  0  0  0  0  0  0  0  0  0
    0.9211  -50.1867  -20.1247 C   0  0  0  0  0  0  0  0  0  0  0  0
    1.9987  -50.1781  -17.1627 C   0  0  0  0  0  0  0  0  0  0  0  0
    2.5600  -50.6013  -18.3887 O   0  0  0  0  0  0  0  0  0  0  0  0
 22 23  1  0  0  0
 23 16  1  0  0  0
 16 17  2  0  0  0
 17 18  1  0  0  0
 18 19  2  0  0  0
 19 15  1  0  0  0
 15  1  1  0  0  0
  1  2  1  0  0  0
  2  3  1  0  0  0
  3  4  1  0  0  0
  4  5  1  0  0  0
  5  6  1  0  0  0
  6  7  1  0  0  0
  7  8  1  0  0  0
  8  9  1  0  0  0
  9 10  1  0  0  0
 10 11  1  0  0  0
 11 12  1  0  0  0
 11 13  1  0  0  0
 19 20  1  0  0  0
 20 21  2  0  0  0
 21 16  1  0  0  0
 11  1  1  0  0  0
  9  2  1  0  0  0
 13  3  1  0  0  0
  8  4  1  0  0  0
 13  6  1  0  0  0
 10  7  1  0  0  0
 12 14  1  0  0  0
M  END
> <minimizedAffinity>
-7.30388

> <CNNscore>
0.2550385594

> <CNNaffinity>
5.7378249168

> <CNN_VS>
1.4633666277

> <CNNaffinity_variance>
0.0443695895

$$$$
[H]c1nc(N2C([H])([H])C([H])([H])N(C([H])([H])C([H])([H])C([H])([H])Sc3c([H])c([H])c(F)c([H])c3[H])C([H])([H])C2([H])[H])c([H])c([H])c1[H]


 23 25  0  0  0  0  0  0  0  0999 V2000
    4.0161  -51.3192  -23.8933 N   0  0  0  0  0  0  0  0  0  0  0  0
    3.7846  -52.6459  -24.4089 C   0  0  0  0  0  0  0  0  0  0  0  0
    2.3751  -52.9196  -24.8563 C   0  0  0  0  0  0  0  0  0  0  0  0
    1.8063  -51.8609  -25.6307 N   0  0  0  0  0  0  0  0  0  0  0  0
    2.2409  -50.5104  -25.3847 C   0  0  0  0  0  0  0  0  0  0  0  0
    2.8636  -50.4640  -24.0215 C   0  0  0  0  0  0  0  0  0  0  0  0
    0.8302  -52.1615  -26.6167 C   0  0  0  0  0  0  0  0  0  0  0  0
   -0.5215  -52.1190  -26.3635 C   0  0  0  0  0  0  0  0  0  0  0  0
   -1.4629  -52.4296  -27.3475 C   0  0  0  0  0  0  0  0  0  0  0  0
   -1.0478  -52.7868  -28.6001 C   0  0  0  0  0  0  0  0  0  0  0  0
    0.3073  -52.8222  -28.8303 C   0  0  0  0  0  0  0  0  0  0  0  0
    1.1976  -52.5216  -27.8756 N   0  0  0  0  0  0  0  0  0  0  0  0
    4.5236  -51.3527  -22.5388 C   0  0  0  0  0  0  0  0  0  0  0  0
    3.6445  -50.5056  -21.6568 C   0  0  0  0  0  0  0  0  0  0  0  0
    3.4687  -51.2450  -20.3312 C   0  0  0  0  0  0  0  0  0  0  0  0
    1.7312  -51.1744  -19.8267 S   0  0  0  0  0  0  0  0  0  0  0  0
   -1.6108  -54.9774  -22.9602 F   0  0  0  0  0  0  0  0  0  0  0  0
   -0.8439  -54.1249  -22.2286 C   0  0  0  0  0  0  0  0  0  0  0  0
   -0.5933  -52.8456  -22.7066 C   0  0  0  0  0  0  0  0  0  0  0  0
    0.1763  -51.9643  -21.9905 C   0  0  0  0  0  0  0  0  0  0  0  0
    0.7307  -52.3059  -20.7753 C   0  0  0  0  0  0  0  0  0  0  0  0
    0.4745  -53.5797  -20.3113 C   0  0  0  0  0  0  0  0  0  0  0  0
   -0.2989  -54.4834  -21.0174 C   0  0  0  0  0  0  0  0  0  0  0  0
 17 18  1  0  0  0
 18 19  2  0  0  0
 19 20  1  0  0  0
 20 21  2  0  0  0
 21 16  1  0  0  0
 16 15  1  0  0  0
 15 14  1  0  0  0
 14 13  1  0  0  0
 13  1  1  0  0  0
  1  2  1  0  0  0
  2  3  1  0  0  0
  3  4  1  0  0  0
  4  7  1  0  0  0
  7  8  2  0  0  0
  8  9  1  0  0  0
  9 10  2  0  0  0
 10 11  1  0  0  0
 11 12  2  0  0  0
  4  5  1  0  0  0
  5  6  1  0  0  0
 21 22  1  0  0  0
 22 23  2  0  0  0
 23 18  1  0  0  0
  6  1  1  0  0  0
 12  7  1  0  0  0
M  END
> <minimizedAffinity>
-6.92960

> <CNNscore>
0.3917109966

> <CNNaffinity>
6.0221910477

> <CNN_VS>
2.3589584827

> <CNNaffinity_variance>
0.2794540524

$$$$
[H]c1nc(N2C([H])([H])C([H])([H])N(C([H])([H])C([H])([H])C([H])([H])Sc3c([H])c([H])c(F)c([H])c3[H])C([H])([H])C2([H])[H])c([H])c([H])c1[H]


 23 25  0  0  0  0  0  0  0  0999 V2000
   -1.0658  -53.2082  -20.7916 N   0  0  0  0  0  0  0  0  0  0  0  0
   -0.8364  -52.0313  -21.5928 C   0  0  0  0  0  0  0  0  0  0  0  0
   -0.0601  -52.2633  -22.8598 C   0  0  0  0  0  0  0  0  0  0  0  0
   -0.4869  -53.4176  -23.5874 N   0  0  0  0  0  0  0  0  0  0  0  0
   -1.0401  -54.5307  -22.8605 C   0  0  0  0  0  0  0  0  0  0  0  0
   -0.6042  -54.4142  -21.4306 C   0  0  0  0  0  0  0  0  0  0  0  0
   -0.3543  -53.4425  -25.0006 C   0  0  0  0  0  0  0  0  0  0  0  0
   -0.4986  -52.3192  -25.7818 C   0  0  0  0  0  0  0  0  0  0  0  0
   -0.3741  -52.3709  -27.1721 C   0  0  0  0  0  0  0  0  0  0  0  0
   -0.1016  -53.5602  -27.7888 C   0  0  0  0  0  0  0  0  0  0  0  0
    0.0388  -54.6692  -26.9882 C   0  0  0  0  0  0  0  0  0  0  0  0
   -0.0838  -54.6031  -25.6559 N   0  0  0  0  0  0  0  0  0  0  0  0
   -0.5308  -53.0586  -19.4557 C   0  0  0  0  0  0  0  0  0  0  0  0
    0.3188  -51.8165  -19.3961 C   0  0  0  0  0  0  0  0  0  0  0  0
    0.1177  -51.1835  -18.0199 C   0  0  0  0  0  0  0  0  0  0  0  0
   -0.7944  -52.3300  -16.9559 S   0  0  0  0  0  0  0  0  0  0  0  0
   -5.3825  -49.6112  -14.3087 F   0  0  0  0  0  0  0  0  0  0  0  0
   -4.3204  -50.2163  -14.9052 C   0  0  0  0  0  0  0  0  0  0  0  0
   -4.5097  -51.3995  -15.6066 C   0  0  0  0  0  0  0  0  0  0  0  0
   -3.4573  -52.0318  -16.2184 C   0  0  0  0  0  0  0  0  0  0  0  0
   -2.1759  -51.5259  -16.1648 C   0  0  0  0  0  0  0  0  0  0  0  0
   -2.0008  -50.3499  -15.4649 C   0  0  0  0  0  0  0  0  0  0  0  0
   -3.0482  -49.6964  -14.8411 C   0  0  0  0  0  0  0  0  0  0  0  0
 17 18  1  0  0  0
 18 19  2  0  0  0
 19 20  1  0  0  0
 20 21  2  0  0  0
 21 16  1  0  0  0
 16 15  1  0  0  0
 15 14  1  0  0  0
 14 13  1  0  0  0
 13  1  1  0  0  0
  1  2  1  0  0  0
  2  3  1  0  0  0
  3  4  1  0  0  0
  4  7  1  0  0  0
  7  8  2  0  0  0
  8  9  1  0  0  0
  9 10  2  0  0  0
 10 11  1  0  0  0
 11 12  2  0  0  0
  4  5  1  0  0  0
  5  6  1  0  0  0
 21 22  1  0  0  0
 22 23  2  0  0  0
 23 18  1  0  0  0
  6  1  1  0  0  0
 12  7  1  0  0  0
M  END
> <minimizedAffinity>
-7.30019

> <CNNscore>
0.2204923034

> <CNNaffinity>
5.4453477859

> <CNN_VS>
1.2006572485

> <CNNaffinity_variance>
0.2097896338

$$$$
[H]c1nc(N2C([H])([H])C([H])([H])N(C([H])([H])C([H])([H])C([H])([H])Sc3c([H])c([H])c(F)c([H])c3[H])C([H])([H])C2([H])[H])c([H])c([H])c1[H]


 23 25  0  0  0  0  0  0  0  0999 V2000
    1.7887  -52.4298  -24.5820 N   0  0  0  0  0  0  0  0  0  0  0  0
    3.1539  -52.8867  -24.6660 C   0  0  0  0  0  0  0  0  0  0  0  0
    4.1960  -51.8092  -24.5447 C   0  0  0  0  0  0  0  0  0  0  0  0
    3.9330  -50.8766  -23.4935 N   0  0  0  0  0  0  0  0  0  0  0  0
    2.5658  -50.6091  -23.1291 C   0  0  0  0  0  0  0  0  0  0  0  0
    1.6904  -51.0260  -24.2728 C   0  0  0  0  0  0  0  0  0  0  0  0
    5.0176  -50.2368  -22.8380 C   0  0  0  0  0  0  0  0  0  0  0  0
    5.3347  -48.9136  -23.0420 C   0  0  0  0  0  0  0  0  0  0  0  0
    6.4138  -48.3089  -22.3932 C   0  0  0  0  0  0  0  0  0  0  0  0
    7.1851  -49.0359  -21.5298 C   0  0  0  0  0  0  0  0  0  0  0  0
    6.8494  -50.3558  -21.3413 C   0  0  0  0  0  0  0  0  0  0  0  0
    5.8112  -50.9213  -21.9713 N   0  0  0  0  0  0  0  0  0  0  0  0
    1.0326  -52.7832  -25.7639 C   0  0  0  0  0  0  0  0  0  0  0  0
   -0.3570  -53.2000  -25.3595 C   0  0  0  0  0  0  0  0  0  0  0  0
   -0.2811  -54.6427  -24.8618 C   0  0  0  0  0  0  0  0  0  0  0  0
   -1.2935  -54.8207  -23.3712 S   0  0  0  0  0  0  0  0  0  0  0  0
    0.8220  -51.5085  -18.8986 F   0  0  0  0  0  0  0  0  0  0  0  0
    0.3313  -52.2462  -19.9307 C   0  0  0  0  0  0  0  0  0  0  0  0
    0.5142  -53.6226  -19.9381 C   0  0  0  0  0  0  0  0  0  0  0  0
    0.0303  -54.3920  -20.9656 C   0  0  0  0  0  0  0  0  0  0  0  0
   -0.6531  -53.8385  -22.0274 C   0  0  0  0  0  0  0  0  0  0  0  0
   -0.8283  -52.4701  -22.0084 C   0  0  0  0  0  0  0  0  0  0  0  0
   -0.3485  -51.6763  -20.9822 C   0  0  0  0  0  0  0  0  0  0  0  0
 17 18  1  0  0  0
 18 19  2  0  0  0
 19 20  1  0  0  0
 20 21  2  0  0  0
 21 16  1  0  0  0
 16 15  1  0  0  0
 15 14  1  0  0  0
 14 13  1  0  0  0
 13  1  1  0  0  0
  1  2  1  0  0  0
  2  3  1  0  0  0
  3  4  1  0  0  0
  4  7  1  0  0  0
  7  8  2  0  0  0
  8  9  1  0  0  0
  9 10  2  0  0  0
 10 11  1  0  0  0
 11 12  2  0  0  0
  4  5  1  0  0  0
  5  6  1  0  0  0
 21 22  1  0  0  0
 22 23  2  0  0  0
 23 18  1  0  0  0
  6  1  1  0  0  0
 12  7  1  0  0  0
M  END
> <minimizedAffinity>
-5.58369

> <CNNscore>
0.1929987818

> <CNNaffinity>
5.5955977440

> <CNN_VS>
1.0799435377

> <CNNaffinity_variance>
0.1809123307

$$$$
[H]c1nc(N2C([H])([H])C([H])([H])N(C([H])([H])C([H])([H])C([H])([H])Sc3c([H])c([H])c(F)c([H])c3[H])C([H])([H])C2([H])[H])c([H])c([H])c1[H]


 23 25  0  0  0  0  0  0  0  0999 V2000
    0.7452  -50.3072  -16.2393 N   0  0  0  0  0  0  0  0  0  0  0  0
    0.1053  -51.5992  -16.2697 C   0  0  0  0  0  0  0  0  0  0  0  0
   -0.5933  -51.9350  -17.5584 C   0  0  0  0  0  0  0  0  0  0  0  0
    0.1696  -51.6094  -18.7228 N   0  0  0  0  0  0  0  0  0  0  0  0
    1.0902  -50.5038  -18.6625 C   0  0  0  0  0  0  0  0  0  0  0  0
    0.6924  -49.6307  -17.5102 C   0  0  0  0  0  0  0  0  0  0  0  0
    0.0021  -52.3757  -19.9061 C   0  0  0  0  0  0  0  0  0  0  0  0
   -0.9133  -53.3977  -20.0078 C   0  0  0  0  0  0  0  0  0  0  0  0
   -1.0523  -54.1449  -21.1798 C   0  0  0  0  0  0  0  0  0  0  0  0
   -0.2665  -53.8667  -22.2633 C   0  0  0  0  0  0  0  0  0  0  0  0
    0.6408  -52.8411  -22.1388 C   0  0  0  0  0  0  0  0  0  0  0  0
    0.7621  -52.1339  -21.0077 N   0  0  0  0  0  0  0  0  0  0  0  0
    0.2396  -49.4851  -15.1613 C   0  0  0  0  0  0  0  0  0  0  0  0
   -0.9334  -48.6810  -15.6568 C   0  0  0  0  0  0  0  0  0  0  0  0
   -1.9407  -48.5781  -14.5124 C   0  0  0  0  0  0  0  0  0  0  0  0
   -1.9217  -50.1131  -13.5521 S   0  0  0  0  0  0  0  0  0  0  0  0
   -5.8277  -54.0823  -15.6591 F   0  0  0  0  0  0  0  0  0  0  0  0
   -4.9362  -53.1858  -15.1573 C   0  0  0  0  0  0  0  0  0  0  0  0
   -4.3977  -52.2142  -15.9903 C   0  0  0  0  0  0  0  0  0  0  0  0
   -3.4967  -51.2969  -15.5121 C   0  0  0  0  0  0  0  0  0  0  0  0
   -3.0890  -51.2985  -14.1951 C   0  0  0  0  0  0  0  0  0  0  0  0
   -3.6312  -52.2687  -13.3776 C   0  0  0  0  0  0  0  0  0  0  0  0
   -4.5410  -53.2026  -13.8397 C   0  0  0  0  0  0  0  0  0  0  0  0
 17 18  1  0  0  0
 18 19  2  0  0  0
 19 20  1  0  0  0
 20 21  2  0  0  0
 21 16  1  0  0  0
 16 15  1  0  0  0
 15 14  1  0  0  0
 14 13  1  0  0  0
 13  1  1  0  0  0
  1  2  1  0  0  0
  2  3  1  0  0  0
  3  4  1  0  0  0
  4  7  1  0  0  0
  7  8  2  0  0  0
  8  9  1  0  0  0
  9 10  2  0  0  0
 10 11  1  0  0  0
 11 12  2  0  0  0
  4  5  1  0  0  0
  5  6  1  0  0  0
 21 22  1  0  0  0
 22 23  2  0  0  0
 23 18  1  0  0  0
  6  1  1  0  0  0
 12  7  1  0  0  0
M  END
> <minimizedAffinity>
-5.74099

> <CNNscore>
0.1679032445

> <CNNaffinity>
4.6448807716

> <CNN_VS>
0.7798905373

> <CNNaffinity_variance>
0.5040969849

$$$$
[H]c1nc(N2C([H])([H])C([H])([H])N(C([H])([H])C([H])([H])C([H])([H])Sc3c([H])c([H])c(F)c([H])c3[H])C([H])([H])C2([H])[H])c([H])c([H])c1[H]


 23 25  0  0  0  0  0  0  0  0999 V2000
    3.5143  -51.9015  -22.8696 N   0  0  0  0  0  0  0  0  0  0  0  0
    2.2556  -51.1982  -22.8968 C   0  0  0  0  0  0  0  0  0  0  0  0
    1.6945  -50.9473  -24.2694 C   0  0  0  0  0  0  0  0  0  0  0  0
    1.7726  -52.0830  -25.1343 N   0  0  0  0  0  0  0  0  0  0  0  0
    2.8477  -53.0230  -24.9498 C   0  0  0  0  0  0  0  0  0  0  0  0
    3.9349  -52.3391  -24.1762 C   0  0  0  0  0  0  0  0  0  0  0  0
    0.7972  -52.2568  -26.1510 C   0  0  0  0  0  0  0  0  0  0  0  0
   -0.5497  -52.0874  -25.9273 C   0  0  0  0  0  0  0  0  0  0  0  0
   -1.4916  -52.2745  -26.9416 C   0  0  0  0  0  0  0  0  0  0  0  0
   -1.0818  -52.6353  -28.1949 C   0  0  0  0  0  0  0  0  0  0  0  0
    0.2686  -52.7986  -28.3953 C   0  0  0  0  0  0  0  0  0  0  0  0
    1.1595  -52.6154  -27.4118 N   0  0  0  0  0  0  0  0  0  0  0  0
    4.5396  -51.1370  -22.1931 C   0  0  0  0  0  0  0  0  0  0  0  0
    3.9344  -49.8744  -21.6382 C   0  0  0  0  0  0  0  0  0  0  0  0
    4.8179  -48.7067  -22.0751 C   0  0  0  0  0  0  0  0  0  0  0  0
    3.8765  -47.1639  -21.9655 S   0  0  0  0  0  0  0  0  0  0  0  0
    2.0005  -45.3302  -27.3105 F   0  0  0  0  0  0  0  0  0  0  0  0
    2.4170  -45.7323  -26.0797 C   0  0  0  0  0  0  0  0  0  0  0  0
    3.2324  -46.8500  -25.9626 C   0  0  0  0  0  0  0  0  0  0  0  0
    3.6679  -47.2788  -24.7344 C   0  0  0  0  0  0  0  0  0  0  0  0
    3.3186  -46.6255  -23.5717 C   0  0  0  0  0  0  0  0  0  0  0  0
    2.5080  -45.5165  -23.7013 C   0  0  0  0  0  0  0  0  0  0  0  0
    2.0582  -45.0676  -24.9299 C   0  0  0  0  0  0  0  0  0  0  0  0
 17 18  1  0  0  0
 18 19  2  0  0  0
 19 20  1  0  0  0
 20 21  2  0  0  0
 21 16  1  0  0  0
 16 15  1  0  0  0
 15 14  1  0  0  0
 14 13  1  0  0  0
 13  1  1  0  0  0
  1  2  1  0  0  0
  2  3  1  0  0  0
  3  4  1  0  0  0
  4  7  1  0  0  0
  7  8  2  0  0  0
  8  9  1  0  0  0
  9 10  2  0  0  0
 10 11  1  0  0  0
 11 12  2  0  0  0
  4  5  1  0  0  0
  5  6  1  0  0  0
 21 22  1  0  0  0
 22 23  2  0  0  0
 23 18  1  0  0  0
  6  1  1  0  0  0
 12  7  1  0  0  0
M  END
> <minimizedAffinity>
-5.67297

> <CNNscore>
0.1651896089

> <CNNaffinity>
5.1626253128

> <CNN_VS>
0.8528120518

> <CNNaffinity_variance>
0.4722225666

$$$$
[H]c1nc(N2C([H])([H])C([H])([H])N(C([H])([H])C([H])([H])C([H])([H])Sc3c([H])c([H])c(F)c([H])c3[H])C([H])([H])C2([H])[H])c([H])c([H])c1[H]


 23 25  0  0  0  0  0  0  0  0999 V2000
    0.1678  -52.0001  -20.1513 N   0  0  0  0  0  0  0  0  0  0  0  0
    0.3882  -50.9624  -21.1282 C   0  0  0  0  0  0  0  0  0  0  0  0
    0.8517  -51.4429  -22.4759 C   0  0  0  0  0  0  0  0  0  0  0  0
    0.1323  -52.5822  -22.9540 N   0  0  0  0  0  0  0  0  0  0  0  0
   -0.4085  -53.5129  -21.9977 C   0  0  0  0  0  0  0  0  0  0  0  0
    0.3207  -53.3229  -20.7013 C   0  0  0  0  0  0  0  0  0  0  0  0
   -0.0297  -52.7714  -24.3516 C   0  0  0  0  0  0  0  0  0  0  0  0
   -0.3105  -51.7378  -25.2153 C   0  0  0  0  0  0  0  0  0  0  0  0
   -0.4761  -51.9508  -26.5858 C   0  0  0  0  0  0  0  0  0  0  0  0
   -0.3594  -53.2124  -27.0991 C   0  0  0  0  0  0  0  0  0  0  0  0
   -0.0783  -54.2294  -26.2175 C   0  0  0  0  0  0  0  0  0  0  0  0
    0.0776  -54.0088  -24.9055 N   0  0  0  0  0  0  0  0  0  0  0  0
    0.9784  -51.8028  -18.9692 C   0  0  0  0  0  0  0  0  0  0  0  0
    0.5743  -50.5167  -18.2977 C   0  0  0  0  0  0  0  0  0  0  0  0
    0.6921  -50.7256  -16.7886 C   0  0  0  0  0  0  0  0  0  0  0  0
   -0.7140  -49.9419  -15.9595 S   0  0  0  0  0  0  0  0  0  0  0  0
   -5.5088  -53.4716  -15.9186 F   0  0  0  0  0  0  0  0  0  0  0  0
   -4.4242  -52.6508  -15.9138 C   0  0  0  0  0  0  0  0  0  0  0  0
   -3.2835  -53.0172  -16.6156 C   0  0  0  0  0  0  0  0  0  0  0  0
   -2.1748  -52.2094  -16.6289 C   0  0  0  0  0  0  0  0  0  0  0  0
   -2.1434  -51.0085  -15.9523 C   0  0  0  0  0  0  0  0  0  0  0  0
   -3.2829  -50.6558  -15.2590 C   0  0  0  0  0  0  0  0  0  0  0  0
   -4.4112  -51.4556  -15.2327 C   0  0  0  0  0  0  0  0  0  0  0  0
 17 18  1  0  0  0
 18 19  2  0  0  0
 19 20  1  0  0  0
 20 21  2  0  0  0
 21 16  1  0  0  0
 16 15  1  0  0  0
 15 14  1  0  0  0
 14 13  1  0  0  0
 13  1  1  0  0  0
  1  2  1  0  0  0
  2  3  1  0  0  0
  3  4  1  0  0  0
  4  7  1  0  0  0
  7  8  2  0  0  0
  8  9  1  0  0  0
  9 10  2  0  0  0
 10 11  1  0  0  0
 11 12  2  0  0  0
  4  5  1  0  0  0
  5  6  1  0  0  0
 21 22  1  0  0  0
 22 23  2  0  0  0
 23 18  1  0  0  0
  6  1  1  0  0  0
 12  7  1  0  0  0
M  END
> <minimizedAffinity>
-6.34686

> <CNNscore>
0.1471148431

> <CNNaffinity>
5.1419115067

> <CNN_VS>
0.7564514875

> <CNNaffinity_variance>
0.2821560502

$$$$
[H]c1nc(N2C([H])([H])C([H])([H])N(C([H])([H])C([H])([H])C([H])([H])Sc3c([H])c([H])c(F)c([H])c3[H])C([H])([H])C2([H])[H])c([H])c([H])c1[H]


 23 25  0  0  0  0  0  0  0  0999 V2000
   -0.1069  -52.1834  -21.9201 N   0  0  0  0  0  0  0  0  0  0  0  0
   -0.6804  -52.9306  -20.8281 C   0  0  0  0  0  0  0  0  0  0  0  0
   -0.0679  -52.6632  -19.4808 C   0  0  0  0  0  0  0  0  0  0  0  0
    0.1477  -51.2746  -19.2174 N   0  0  0  0  0  0  0  0  0  0  0  0
    0.4117  -50.3913  -20.3235 C   0  0  0  0  0  0  0  0  0  0  0  0
    0.8740  -51.2233  -21.4821 C   0  0  0  0  0  0  0  0  0  0  0  0
    0.1000  -50.8004  -17.8802 C   0  0  0  0  0  0  0  0  0  0  0  0
   -0.6839  -51.3830  -16.9111 C   0  0  0  0  0  0  0  0  0  0  0  0
   -0.7221  -50.8915  -15.6042 C   0  0  0  0  0  0  0  0  0  0  0  0
    0.0328  -49.8043  -15.2620 C   0  0  0  0  0  0  0  0  0  0  0  0
    0.8085  -49.2389  -16.2463 C   0  0  0  0  0  0  0  0  0  0  0  0
    0.8341  -49.7221  -17.4954 N   0  0  0  0  0  0  0  0  0  0  0  0
    0.4061  -53.0558  -22.9540 C   0  0  0  0  0  0  0  0  0  0  0  0
    1.8481  -52.7145  -23.2229 C   0  0  0  0  0  0  0  0  0  0  0  0
    2.0499  -52.7172  -24.7375 C   0  0  0  0  0  0  0  0  0  0  0  0
    0.9948  -51.4521  -25.4890 S   0  0  0  0  0  0  0  0  0  0  0  0
   -1.8293  -53.5775  -30.2805 F   0  0  0  0  0  0  0  0  0  0  0  0
   -1.1641  -53.0954  -29.1964 C   0  0  0  0  0  0  0  0  0  0  0  0
   -1.8815  -52.6241  -28.1050 C   0  0  0  0  0  0  0  0  0  0  0  0
   -1.2377  -52.1323  -26.9980 C   0  0  0  0  0  0  0  0  0  0  0  0
    0.1379  -52.0841  -26.9199 C   0  0  0  0  0  0  0  0  0  0  0  0
    0.8393  -52.5553  -28.0106 C   0  0  0  0  0  0  0  0  0  0  0  0
    0.2097  -53.0553  -29.1362 C   0  0  0  0  0  0  0  0  0  0  0  0
 17 18  1  0  0  0
 18 19  2  0  0  0
 19 20  1  0  0  0
 20 21  2  0  0  0
 21 16  1  0  0  0
 16 15  1  0  0  0
 15 14  1  0  0  0
 14 13  1  0  0  0
 13  1  1  0  0  0
  1  2  1  0  0  0
  2  3  1  0  0  0
  3  4  1  0  0  0
  4  7  1  0  0  0
  7  8  2  0  0  0
  8  9  1  0  0  0
  9 10  2  0  0  0
 10 11  1  0  0  0
 11 12  2  0  0  0
  4  5  1  0  0  0
  5  6  1  0  0  0
 21 22  1  0  0  0
 22 23  2  0  0  0
 23 18  1  0  0  0
  6  1  1  0  0  0
 12  7  1  0  0  0
M  END
> <minimizedAffinity>
-6.37968

> <CNNscore>
0.1451503336

> <CNNaffinity>
5.3642115593

> <CNN_VS>
0.7786170840

> <CNNaffinity_variance>
0.0460689962

$$$$
[H]c1nc(N2C([H])([H])C([H])([H])N(C([H])([H])C([H])([H])C([H])([H])Sc3c([H])c([H])c(F)c([H])c3[H])C([H])([H])C2([H])[H])c([H])c([H])c1[H]


 23 25  0  0  0  0  0  0  0  0999 V2000
   -0.7842  -53.2691  -21.0715 N   0  0  0  0  0  0  0  0  0  0  0  0
   -0.5805  -52.0821  -21.8648 C   0  0  0  0  0  0  0  0  0  0  0  0
    0.1015  -52.3071  -23.1862 C   0  0  0  0  0  0  0  0  0  0  0  0
   -0.4027  -53.4361  -23.9038 N   0  0  0  0  0  0  0  0  0  0  0  0
   -0.9329  -54.5501  -23.1612 C   0  0  0  0  0  0  0  0  0  0  0  0
   -0.3977  -54.4727  -21.7627 C   0  0  0  0  0  0  0  0  0  0  0  0
   -0.3675  -53.4359  -25.3230 C   0  0  0  0  0  0  0  0  0  0  0  0
   -1.0070  -52.4843  -26.0835 C   0  0  0  0  0  0  0  0  0  0  0  0
   -0.9667  -52.5113  -27.4795 C   0  0  0  0  0  0  0  0  0  0  0  0
   -0.2783  -53.5017  -28.1229 C   0  0  0  0  0  0  0  0  0  0  0  0
    0.3532  -54.4414  -27.3427 C   0  0  0  0  0  0  0  0  0  0  0  0
    0.3049  -54.4018  -26.0046 N   0  0  0  0  0  0  0  0  0  0  0  0
   -0.1558  -53.1590  -19.7729 C   0  0  0  0  0  0  0  0  0  0  0  0
    0.1345  -51.7101  -19.4818 C   0  0  0  0  0  0  0  0  0  0  0  0
    1.4992  -51.6397  -18.7979 C   0  0  0  0  0  0  0  0  0  0  0  0
    2.8030  -51.6135  -20.0540 S   0  0  0  0  0  0  0  0  0  0  0  0
    2.5423  -46.6919  -23.3948 F   0  0  0  0  0  0  0  0  0  0  0  0
    2.6088  -47.8281  -22.6499 C   0  0  0  0  0  0  0  0  0  0  0  0
    2.3222  -47.7761  -21.2923 C   0  0  0  0  0  0  0  0  0  0  0  0
    2.3809  -48.9058  -20.5162 C   0  0  0  0  0  0  0  0  0  0  0  0
    2.7242  -50.1322  -21.0442 C   0  0  0  0  0  0  0  0  0  0  0  0
    3.0066  -50.1707  -22.3942 C   0  0  0  0  0  0  0  0  0  0  0  0
    2.9532  -49.0436  -23.1943 C   0  0  0  0  0  0  0  0  0  0  0  0
 17 18  1  0  0  0
 18 19  2  0  0  0
 19 20  1  0  0  0
 20 21  2  0  0  0
 21 16  1  0  0  0
 16 15  1  0  0  0
 15 14  1  0  0  0
 14 13  1  0  0  0
 13  1  1  0  0  0
  1  2  1  0  0  0
  2  3  1  0  0  0
  3  4  1  0  0  0
  4  7  1  0  0  0
  7  8  2  0  0  0
  8  9  1  0  0  0
  9 10  2  0  0  0
 10 11  1  0  0  0
 11 12  2  0  0  0
  4  5  1  0  0  0
  5  6  1  0  0  0
 21 22  1  0  0  0
 22 23  2  0  0  0
 23 18  1  0  0  0
  6  1  1  0  0  0
 12  7  1  0  0  0
M  END
> <minimizedAffinity>
-6.43270

> <CNNscore>
0.1437613815

> <CNNaffinity>
5.5625438690

> <CNN_VS>
0.7996789813

> <CNNaffinity_variance>
0.2578653693

$$$$
[H]c1nc(N2C([H])([H])C([H])([H])N(C([H])([H])C([H])([H])C([H])([H])Sc3c([H])c([H])c(F)c([H])c3[H])C([H])([H])C2([H])[H])c([H])c([H])c1[H]


 23 25  0  0  0  0  0  0  0  0999 V2000
    0.4205  -51.1186  -19.7819 N   0  0  0  0  0  0  0  0  0  0  0  0
    0.7579  -50.2378  -20.8728 C   0  0  0  0  0  0  0  0  0  0  0  0
    1.2056  -50.9256  -22.1331 C   0  0  0  0  0  0  0  0  0  0  0  0
    0.3952  -52.0482  -22.4894 N   0  0  0  0  0  0  0  0  0  0  0  0
   -0.2508  -52.7976  -21.4433 C   0  0  0  0  0  0  0  0  0  0  0  0
    0.4631  -52.5092  -20.1567 C   0  0  0  0  0  0  0  0  0  0  0  0
    0.2483  -52.3991  -23.8571 C   0  0  0  0  0  0  0  0  0  0  0  0
    0.4047  -51.4918  -24.8795 C   0  0  0  0  0  0  0  0  0  0  0  0
    0.2444  -51.8588  -26.2177 C   0  0  0  0  0  0  0  0  0  0  0  0
   -0.0759  -53.1487  -26.5376 C   0  0  0  0  0  0  0  0  0  0  0  0
   -0.2269  -54.0379  -25.4998 C   0  0  0  0  0  0  0  0  0  0  0  0
   -0.0700  -53.6702  -24.2213 N   0  0  0  0  0  0  0  0  0  0  0  0
    1.2187  -50.8448  -18.6067 C   0  0  0  0  0  0  0  0  0  0  0  0
    0.3970  -50.0591  -17.6190 C   0  0  0  0  0  0  0  0  0  0  0  0
    1.2066  -49.9481  -16.3278 C   0  0  0  0  0  0  0  0  0  0  0  0
    0.2719  -50.6869  -14.9643 S   0  0  0  0  0  0  0  0  0  0  0  0
   -5.4930  -49.2166  -15.1990 F   0  0  0  0  0  0  0  0  0  0  0  0
   -4.1815  -49.5742  -15.1499 C   0  0  0  0  0  0  0  0  0  0  0  0
   -3.2132  -48.6029  -14.9337 C   0  0  0  0  0  0  0  0  0  0  0  0
   -1.8831  -48.9341  -14.8791 C   0  0  0  0  0  0  0  0  0  0  0  0
   -1.4518  -50.2342  -15.0352 C   0  0  0  0  0  0  0  0  0  0  0  0
   -2.4234  -51.1900  -15.2494 C   0  0  0  0  0  0  0  0  0  0  0  0
   -3.7696  -50.8773  -15.3078 C   0  0  0  0  0  0  0  0  0  0  0  0
 17 18  1  0  0  0
 18 19  2  0  0  0
 19 20  1  0  0  0
 20 21  2  0  0  0
 21 16  1  0  0  0
 16 15  1  0  0  0
 15 14  1  0  0  0
 14 13  1  0  0  0
 13  1  1  0  0  0
  1  2  1  0  0  0
  2  3  1  0  0  0
  3  4  1  0  0  0
  4  7  1  0  0  0
  7  8  2  0  0  0
  8  9  1  0  0  0
  9 10  2  0  0  0
 10 11  1  0  0  0
 11 12  2  0  0  0
  4  5  1  0  0  0
  5  6  1  0  0  0
 21 22  1  0  0  0
 22 23  2  0  0  0
 23 18  1  0  0  0
  6  1  1  0  0  0
 12  7  1  0  0  0
M  END
> <minimizedAffinity>
-5.91122

> <CNNscore>
0.1420343667

> <CNNaffinity>
5.0123324394

> <CNN_VS>
0.7119234800

> <CNNaffinity_variance>
0.2138506472

$$$$
[H]c1c([H])c([H])c2c(c1[H])[C@]([H])(c1c([H])c([H])c(F)c([H])c1[H])C([H])([H])C([H])([H])[C@]2([H])N([H])C([H])([H])[H]


 20 22  0  0  0  0  0  0  0  0999 V2000
    1.2412  -51.4226  -22.0424 C   0  0  0  0  0  0  0  0  0  0  0  0
    1.5705  -50.4992  -23.1672 C   0  0  0  0  0  0  0  0  0  0  0  0
    1.5904  -51.2374  -24.4852 C   0  0  0  0  0  0  0  0  0  0  0  0
    0.1370  -51.6663  -24.7362 C   0  0  0  0  0  0  0  0  0  0  0  0
   -0.1109  -52.7304  -23.7152 C   0  0  0  0  0  0  0  0  0  0  0  0
   -0.8600  -53.8266  -24.0436 C   0  0  0  0  0  0  0  0  0  0  0  0
   -1.0751  -54.7974  -23.0852 C   0  0  0  0  0  0  0  0  0  0  0  0
   -0.5658  -54.7000  -21.8219 C   0  0  0  0  0  0  0  0  0  0  0  0
    0.1906  -53.5733  -21.5219 C   0  0  0  0  0  0  0  0  0  0  0  0
    0.4249  -52.5860  -22.4534 C   0  0  0  0  0  0  0  0  0  0  0  0
   -0.1106  -52.0866  -26.1095 C   0  0  0  0  0  0  0  0  0  0  0  0
   -1.3966  -52.1256  -26.5973 C   0  0  0  0  0  0  0  0  0  0  0  0
   -1.6739  -52.5165  -27.8898 C   0  0  0  0  0  0  0  0  0  0  0  0
   -0.6492  -52.8811  -28.7285 C   0  0  0  0  0  0  0  0  0  0  0  0
   -0.9349  -53.2672  -30.0055 F   0  0  0  0  0  0  0  0  0  0  0  0
    0.6390  -52.8521  -28.2711 C   0  0  0  0  0  0  0  0  0  0  0  0
    0.9103  -52.4537  -26.9575 C   0  0  0  0  0  0  0  0  0  0  0  0
    2.4608  -51.1201  -19.9847 C   0  0  0  0  0  0  0  0  0  0  0  0
    2.3962  -51.7986  -21.2491 N   0  0  0  0  0  0  0  0  0  0  0  0
    2.3096  -52.8227  -21.0631 H   0  0  0  0  0  0  0  0  0  0  0  0
 18 19  1  0  0  0
 19  1  1  0  0  0
  1  2  1  0  0  0
  2  3  1  0  0  0
  3  4  1  0  0  0
  4 11  1  0  0  0
 11 12  2  0  0  0
 12 13  1  0  0  0
 13 14  2  0  0  0
 14 15  1  0  0  0
 14 16  1  0  0  0
 16 17  2  0  0  0
  4  5  1  0  0  0
  5  6  2  0  0  0
  6  7  1  0  0  0
  7  8  2  0  0  0
  8  9  1  0  0  0
  9 10  2  0  0  0
 10  1  1  0  0  0
 17 11  1  0  0  0
 10  5  1  0  0  0
 19 20  1  0  0  0
M  END
> <minimizedAffinity>
-8.17692

> <CNNscore>
0.3760491014

> <CNNaffinity>
5.4409770966

> <CNN_VS>
2.0460746288

> <CNNaffinity_variance>
0.2808535397

$$$$
[H]c1c([H])c([H])c2c(c1[H])[C@]([H])(c1c([H])c([H])c(F)c([H])c1[H])C([H])([H])C([H])([H])[C@]2([H])N([H])C([H])([H])[H]


 20 22  0  0  0  0  0  0  0  0999 V2000
    2.6842  -52.5311  -26.6773 C   0  0  0  0  0  0  0  0  0  0  0  0
    3.3535  -52.6947  -25.3539 C   0  0  0  0  0  0  0  0  0  0  0  0
    2.4522  -52.2369  -24.2313 C   0  0  0  0  0  0  0  0  0  0  0  0
    1.2843  -53.2343  -24.2114 C   0  0  0  0  0  0  0  0  0  0  0  0
    0.5176  -52.9233  -25.4571 C   0  0  0  0  0  0  0  0  0  0  0  0
   -0.8493  -52.9680  -25.4432 C   0  0  0  0  0  0  0  0  0  0  0  0
   -1.5368  -52.6759  -26.6049 C   0  0  0  0  0  0  0  0  0  0  0  0
   -0.8986  -52.3445  -27.7657 C   0  0  0  0  0  0  0  0  0  0  0  0
    0.4906  -52.3086  -27.7447 C   0  0  0  0  0  0  0  0  0  0  0  0
    1.2078  -52.5941  -26.6039 C   0  0  0  0  0  0  0  0  0  0  0  0
    0.4918  -53.1690  -22.9901 C   0  0  0  0  0  0  0  0  0  0  0  0
   -0.1585  -54.2907  -22.5294 C   0  0  0  0  0  0  0  0  0  0  0  0
   -0.9175  -54.2719  -21.3788 C   0  0  0  0  0  0  0  0  0  0  0  0
   -1.0392  -53.1084  -20.6591 C   0  0  0  0  0  0  0  0  0  0  0  0
   -1.7935  -53.1006  -19.5223 F   0  0  0  0  0  0  0  0  0  0  0  0
   -0.4040  -51.9780  -21.0929 C   0  0  0  0  0  0  0  0  0  0  0  0
    0.3642  -52.0073  -22.2620 C   0  0  0  0  0  0  0  0  0  0  0  0
    3.2357  -50.1843  -26.6388 C   0  0  0  0  0  0  0  0  0  0  0  0
    3.1611  -51.3835  -27.4260 N   0  0  0  0  0  0  0  0  0  0  0  0
    4.1257  -51.6188  -27.7500 H   0  0  0  0  0  0  0  0  0  0  0  0
 18 19  1  0  0  0
 19  1  1  0  0  0
  1  2  1  0  0  0
  2  3  1  0  0  0
  3  4  1  0  0  0
  4 11  1  0  0  0
 11 12  2  0  0  0
 12 13  1  0  0  0
 13 14  2  0  0  0
 14 15  1  0  0  0
 14 16  1  0  0  0
 16 17  2  0  0  0
  4  5  1  0  0  0
  5  6  2  0  0  0
  6  7  1  0  0  0
  7  8  2  0  0  0
  8  9  1  0  0  0
  9 10  2  0  0  0
 10  1  1  0  0  0
 17 11  1  0  0  0
 10  5  1  0  0  0
 19 20  1  0  0  0
M  END
> <minimizedAffinity>
-7.55000

> <CNNscore>
0.3564443588

> <CNNaffinity>
5.4240179062

> <CNN_VS>
1.9333605766

> <CNNaffinity_variance>
0.1302620918

$$$$
[H]c1c([H])c([H])c2c(c1[H])[C@]([H])(c1c([H])c([H])c(F)c([H])c1[H])C([H])([H])C([H])([H])[C@]2([H])N([H])C([H])([H])[H]


 20 22  0  0  0  0  0  0  0  0999 V2000
    0.7541  -52.3316  -26.6842 C   0  0  0  0  0  0  0  0  0  0  0  0
   -0.6194  -52.2838  -26.1033 C   0  0  0  0  0  0  0  0  0  0  0  0
   -0.6521  -52.9286  -24.7375 C   0  0  0  0  0  0  0  0  0  0  0  0
    0.1928  -52.0176  -23.8344 C   0  0  0  0  0  0  0  0  0  0  0  0
    1.5938  -52.2268  -24.3134 C   0  0  0  0  0  0  0  0  0  0  0  0
    2.6212  -52.2718  -23.4116 C   0  0  0  0  0  0  0  0  0  0  0  0
    3.9069  -52.4672  -23.8764 C   0  0  0  0  0  0  0  0  0  0  0  0
    4.1870  -52.6167  -25.2045 C   0  0  0  0  0  0  0  0  0  0  0  0
    3.1198  -52.5658  -26.0933 C   0  0  0  0  0  0  0  0  0  0  0  0
    1.8253  -52.3725  -25.6644 C   0  0  0  0  0  0  0  0  0  0  0  0
    0.0020  -52.2781  -22.4133 C   0  0  0  0  0  0  0  0  0  0  0  0
   -0.3843  -53.5282  -21.9873 C   0  0  0  0  0  0  0  0  0  0  0  0
   -0.5751  -53.8164  -20.6529 C   0  0  0  0  0  0  0  0  0  0  0  0
   -0.3787  -52.8395  -19.7076 C   0  0  0  0  0  0  0  0  0  0  0  0
   -0.5712  -53.1352  -18.3897 F   0  0  0  0  0  0  0  0  0  0  0  0
    0.0054  -51.5878  -20.1016 C   0  0  0  0  0  0  0  0  0  0  0  0
    0.1966  -51.3051  -21.4585 C   0  0  0  0  0  0  0  0  0  0  0  0
    0.1343  -53.0930  -28.8862 C   0  0  0  0  0  0  0  0  0  0  0  0
    0.9121  -53.3492  -27.7062 N   0  0  0  0  0  0  0  0  0  0  0  0
    1.9210  -53.3465  -27.9762 H   0  0  0  0  0  0  0  0  0  0  0  0
 18 19  1  0  0  0
 19  1  1  0  0  0
  1  2  1  0  0  0
  2  3  1  0  0  0
  3  4  1  0  0  0
  4 11  1  0  0  0
 11 12  2  0  0  0
 12 13  1  0  0  0
 13 14  2  0  0  0
 14 15  1  0  0  0
 14 16  1  0  0  0
 16 17  2  0  0  0
  4  5  1  0  0  0
  5  6  2  0  0  0
  6  7  1  0  0  0
  7  8  2  0  0  0
  8  9  1  0  0  0
  9 10  2  0  0  0
 10  1  1  0  0  0
 17 11  1  0  0  0
 10  5  1  0  0  0
 19 20  1  0  0  0
M  END
> <minimizedAffinity>
-7.64647

> <CNNscore>
0.2855647802

> <CNNaffinity>
5.4370141029

> <CNN_VS>
1.5526196957

> <CNNaffinity_variance>
0.1077639610

$$$$
[H]c1c([H])c([H])c2c(c1[H])[C@]([H])(c1c([H])c([H])c(F)c([H])c1[H])C([H])([H])C([H])([H])[C@]2([H])N([H])C([H])([H])[H]


 20 22  0  0  0  0  0  0  0  0999 V2000
    3.9313  -50.5994  -24.8497 C   0  0  0  0  0  0  0  0  0  0  0  0
    3.4399  -52.0061  -24.9267 C   0  0  0  0  0  0  0  0  0  0  0  0
    2.8980  -52.4638  -23.5928 C   0  0  0  0  0  0  0  0  0  0  0  0
    1.6400  -51.6167  -23.3496 C   0  0  0  0  0  0  0  0  0  0  0  0
    2.1702  -50.2434  -23.0867 C   0  0  0  0  0  0  0  0  0  0  0  0
    1.5788  -49.4566  -22.1369 C   0  0  0  0  0  0  0  0  0  0  0  0
    2.0859  -48.1922  -21.9100 C   0  0  0  0  0  0  0  0  0  0  0  0
    3.1564  -47.7013  -22.6011 C   0  0  0  0  0  0  0  0  0  0  0  0
    3.7331  -48.5270  -23.5588 C   0  0  0  0  0  0  0  0  0  0  0  0
    3.2532  -49.7933  -23.8108 C   0  0  0  0  0  0  0  0  0  0  0  0
    0.7882  -52.1415  -22.2899 C   0  0  0  0  0  0  0  0  0  0  0  0
   -0.5378  -52.4103  -22.5407 C   0  0  0  0  0  0  0  0  0  0  0  0
   -1.3771  -52.9076  -21.5669 C   0  0  0  0  0  0  0  0  0  0  0  0
   -0.8928  -53.1475  -20.3042 C   0  0  0  0  0  0  0  0  0  0  0  0
   -1.7323  -53.6389  -19.3477 F   0  0  0  0  0  0  0  0  0  0  0  0
    0.4209  -52.8898  -20.0260 C   0  0  0  0  0  0  0  0  0  0  0  0
    1.2650  -52.3852  -21.0213 C   0  0  0  0  0  0  0  0  0  0  0  0
    5.9831  -51.5234  -23.9841 C   0  0  0  0  0  0  0  0  0  0  0  0
    5.3771  -50.4971  -24.7857 N   0  0  0  0  0  0  0  0  0  0  0  0
    5.7270  -50.6013  -25.7642 H   0  0  0  0  0  0  0  0  0  0  0  0
 18 19  1  0  0  0
 19  1  1  0  0  0
  1  2  1  0  0  0
  2  3  1  0  0  0
  3  4  1  0  0  0
  4 11  1  0  0  0
 11 12  2  0  0  0
 12 13  1  0  0  0
 13 14  2  0  0  0
 14 15  1  0  0  0
 14 16  1  0  0  0
 16 17  2  0  0  0
  4  5  1  0  0  0
  5  6  2  0  0  0
  6  7  1  0  0  0
  7  8  2  0  0  0
  8  9  1  0  0  0
  9 10  2  0  0  0
 10  1  1  0  0  0
 17 11  1  0  0  0
 10  5  1  0  0  0
 19 20  1  0  0  0
M  END
> <minimizedAffinity>
-6.42921

> <CNNscore>
0.2831377685

> <CNNaffinity>
4.9944486618

> <CNN_VS>
1.4141170979

> <CNNaffinity_variance>
0.2104832828

$$$$
[H]c1c([H])c([H])c2c(c1[H])[C@]([H])(c1c([H])c([H])c(F)c([H])c1[H])C([H])([H])C([H])([H])[C@]2([H])N([H])C([H])([H])[H]


 20 22  0  0  0  0  0  0  0  0999 V2000
    1.8984  -52.6723  -26.8216 C   0  0  0  0  0  0  0  0  0  0  0  0
    0.4338  -52.8900  -26.6375 C   0  0  0  0  0  0  0  0  0  0  0  0
    0.1432  -53.5032  -25.2878 C   0  0  0  0  0  0  0  0  0  0  0  0
    0.5166  -52.4251  -24.2594 C   0  0  0  0  0  0  0  0  0  0  0  0
    2.0090  -52.3582  -24.3265 C   0  0  0  0  0  0  0  0  0  0  0  0
    2.7338  -52.1800  -23.1803 C   0  0  0  0  0  0  0  0  0  0  0  0
    4.1110  -52.1224  -23.2658 C   0  0  0  0  0  0  0  0  0  0  0  0
    4.7730  -52.2370  -24.4546 C   0  0  0  0  0  0  0  0  0  0  0  0
    4.0059  -52.4171  -25.5995 C   0  0  0  0  0  0  0  0  0  0  0  0
    2.6308  -52.4792  -25.5507 C   0  0  0  0  0  0  0  0  0  0  0  0
   -0.0103  -52.6926  -22.9273 C   0  0  0  0  0  0  0  0  0  0  0  0
   -0.4420  -53.9569  -22.5976 C   0  0  0  0  0  0  0  0  0  0  0  0
   -0.9464  -54.2520  -21.3492 C   0  0  0  0  0  0  0  0  0  0  0  0
   -1.0279  -53.2678  -20.3946 C   0  0  0  0  0  0  0  0  0  0  0  0
   -1.5295  -53.5706  -19.1625 F   0  0  0  0  0  0  0  0  0  0  0  0
   -0.6062  -52.0020  -20.6938 C   0  0  0  0  0  0  0  0  0  0  0  0
   -0.0956  -51.7124  -21.9639 C   0  0  0  0  0  0  0  0  0  0  0  0
    1.6575  -54.1197  -28.7347 C   0  0  0  0  0  0  0  0  0  0  0  0
    2.5226  -53.6562  -27.6861 N   0  0  0  0  0  0  0  0  0  0  0  0
    3.3442  -53.1864  -28.1277 H   0  0  0  0  0  0  0  0  0  0  0  0
 18 19  1  0  0  0
 19  1  1  0  0  0
  1  2  1  0  0  0
  2  3  1  0  0  0
  3  4  1  0  0  0
  4 11  1  0  0  0
 11 12  2  0  0  0
 12 13  1  0  0  0
 13 14  2  0  0  0
 14 15  1  0  0  0
 14 16  1  0  0  0
 16 17  2  0  0  0
  4  5  1  0  0  0
  5  6  2  0  0  0
  6  7  1  0  0  0
  7  8  2  0  0  0
  8  9  1  0  0  0
  9 10  2  0  0  0
 10  1  1  0  0  0
 17 11  1  0  0  0
 10  5  1  0  0  0
 19 20  1  0  0  0
M  END
> <minimizedAffinity>
-7.32802

> <CNNscore>
0.2731080651

> <CNNaffinity>
5.4860725403

> <CNN_VS>
1.4982906580

> <CNNaffinity_variance>
0.1018051878

$$$$
[H]c1c([H])c([H])c2c(c1[H])[C@]([H])(c1c([H])c([H])c(F)c([H])c1[H])C([H])([H])C([H])([H])[C@]2([H])N([H])C([H])([H])[H]


 20 22  0  0  0  0  0  0  0  0999 V2000
    0.3550  -52.2263  -27.0642 C   0  0  0  0  0  0  0  0  0  0  0  0
   -0.9732  -52.1772  -26.3861 C   0  0  0  0  0  0  0  0  0  0  0  0
   -0.9369  -52.9188  -25.0705 C   0  0  0  0  0  0  0  0  0  0  0  0
    0.0005  -52.1039  -24.1669 C   0  0  0  0  0  0  0  0  0  0  0  0
    1.3571  -52.3223  -24.7570 C   0  0  0  0  0  0  0  0  0  0  0  0
    2.4409  -52.4661  -23.9352 C   0  0  0  0  0  0  0  0  0  0  0  0
    3.6840  -52.6680  -24.5020 C   0  0  0  0  0  0  0  0  0  0  0  0
    3.8675  -52.7289  -25.8538 C   0  0  0  0  0  0  0  0  0  0  0  0
    2.7450  -52.5789  -26.6595 C   0  0  0  0  0  0  0  0  0  0  0  0
    1.4907  -52.3760  -26.1279 C   0  0  0  0  0  0  0  0  0  0  0  0
   -0.1029  -52.4615  -22.7579 C   0  0  0  0  0  0  0  0  0  0  0  0
    0.0670  -51.5000  -21.7883 C   0  0  0  0  0  0  0  0  0  0  0  0
   -0.0231  -51.7961  -20.4450 C   0  0  0  0  0  0  0  0  0  0  0  0
   -0.2894  -53.0828  -20.0450 C   0  0  0  0  0  0  0  0  0  0  0  0
   -0.3755  -53.3651  -18.7130 F   0  0  0  0  0  0  0  0  0  0  0  0
   -0.4629  -54.0591  -20.9864 C   0  0  0  0  0  0  0  0  0  0  0  0
   -0.3696  -53.7485  -22.3475 C   0  0  0  0  0  0  0  0  0  0  0  0
   -0.4761  -52.8293  -29.2457 C   0  0  0  0  0  0  0  0  0  0  0  0
    0.4054  -53.1709  -28.1643 N   0  0  0  0  0  0  0  0  0  0  0  0
    1.3847  -53.1544  -28.5269 H   0  0  0  0  0  0  0  0  0  0  0  0
 18 19  1  0  0  0
 19  1  1  0  0  0
  1  2  1  0  0  0
  2  3  1  0  0  0
  3  4  1  0  0  0
  4 11  1  0  0  0
 11 12  2  0  0  0
 12 13  1  0  0  0
 13 14  2  0  0  0
 14 15  1  0  0  0
 14 16  1  0  0  0
 16 17  2  0  0  0
  4  5  1  0  0  0
  5  6  2  0  0  0
  6  7  1  0  0  0
  7  8  2  0  0  0
  8  9  1  0  0  0
  9 10  2  0  0  0
 10  1  1  0  0  0
 17 11  1  0  0  0
 10  5  1  0  0  0
 19 20  1  0  0  0
M  END
> <minimizedAffinity>
-7.84900

> <CNNscore>
0.2644707859

> <CNNaffinity>
5.4079079628

> <CNN_VS>
1.4302337170

> <CNNaffinity_variance>
0.1296403408

$$$$
[H]c1c([H])c([H])c2c(c1[H])[C@]([H])(c1c([H])c([H])c(F)c([H])c1[H])C([H])([H])C([H])([H])[C@]2([H])N([H])C([H])([H])[H]


 20 22  0  0  0  0  0  0  0  0999 V2000
    0.7282  -52.7302  -26.2983 C   0  0  0  0  0  0  0  0  0  0  0  0
   -0.3162  -53.4638  -25.5253 C   0  0  0  0  0  0  0  0  0  0  0  0
    0.0835  -53.6055  -24.0753 C   0  0  0  0  0  0  0  0  0  0  0  0
    0.0702  -52.1791  -23.5058 C   0  0  0  0  0  0  0  0  0  0  0  0
    1.2436  -51.5164  -24.1541 C   0  0  0  0  0  0  0  0  0  0  0  0
    2.0154  -50.6455  -23.4354 C   0  0  0  0  0  0  0  0  0  0  0  0
    3.0948  -50.0459  -24.0542 C   0  0  0  0  0  0  0  0  0  0  0  0
    3.4171  -50.2928  -25.3580 C   0  0  0  0  0  0  0  0  0  0  0  0
    2.6119  -51.1827  -26.0589 C   0  0  0  0  0  0  0  0  0  0  0  0
    1.5279  -51.7984  -25.4730 C   0  0  0  0  0  0  0  0  0  0  0  0
    0.0917  -52.1402  -22.0491 C   0  0  0  0  0  0  0  0  0  0  0  0
    0.0970  -53.3122  -21.3281 C   0  0  0  0  0  0  0  0  0  0  0  0
    0.1176  -53.3195  -19.9498 C   0  0  0  0  0  0  0  0  0  0  0  0
    0.1333  -52.1319  -19.2600 C   0  0  0  0  0  0  0  0  0  0  0  0
    0.1527  -52.1506  -17.8959 F   0  0  0  0  0  0  0  0  0  0  0  0
    0.1285  -50.9515  -19.9500 C   0  0  0  0  0  0  0  0  0  0  0  0
    0.1076  -50.9545  -21.3490 C   0  0  0  0  0  0  0  0  0  0  0  0
    1.0963  -53.6801  -28.4835 C   0  0  0  0  0  0  0  0  0  0  0  0
    1.5492  -53.5967  -27.1230 N   0  0  0  0  0  0  0  0  0  0  0  0
    2.5087  -53.1842  -27.1257 H   0  0  0  0  0  0  0  0  0  0  0  0
 18 19  1  0  0  0
 19  1  1  0  0  0
  1  2  1  0  0  0
  2  3  1  0  0  0
  3  4  1  0  0  0
  4 11  1  0  0  0
 11 12  2  0  0  0
 12 13  1  0  0  0
 13 14  2  0  0  0
 14 15  1  0  0  0
 14 16  1  0  0  0
 16 17  2  0  0  0
  4  5  1  0  0  0
  5  6  2  0  0  0
  6  7  1  0  0  0
  7  8  2  0  0  0
  8  9  1  0  0  0
  9 10  2  0  0  0
 10  1  1  0  0  0
 17 11  1  0  0  0
 10  5  1  0  0  0
 19 20  1  0  0  0
M  END
> <minimizedAffinity>
-6.96672

> <CNNscore>
0.2445581555

> <CNNaffinity>
5.4432978630

> <CNN_VS>
1.3312028646

> <CNNaffinity_variance>
0.1689363122

$$$$
[H]c1c([H])c([H])c2c(c1[H])[C@]([H])(c1c([H])c([H])c(F)c([H])c1[H])C([H])([H])C([H])([H])[C@]2([H])N([H])C([H])([H])[H]


 20 22  0  0  0  0  0  0  0  0999 V2000
    3.5284  -51.5771  -23.3860 C   0  0  0  0  0  0  0  0  0  0  0  0
    4.0807  -51.3963  -22.0117 C   0  0  0  0  0  0  0  0  0  0  0  0
    3.0134  -50.9111  -21.0590 C   0  0  0  0  0  0  0  0  0  0  0  0
    2.0157  -52.0724  -20.9361 C   0  0  0  0  0  0  0  0  0  0  0  0
    1.3375  -52.1133  -22.2683 C   0  0  0  0  0  0  0  0  0  0  0  0
   -0.0011  -52.3844  -22.3417 C   0  0  0  0  0  0  0  0  0  0  0  0
   -0.6068  -52.4159  -23.5825 C   0  0  0  0  0  0  0  0  0  0  0  0
    0.0847  -52.1859  -24.7373 C   0  0  0  0  0  0  0  0  0  0  0  0
    1.4431  -51.9135  -24.6264 C   0  0  0  0  0  0  0  0  0  0  0  0
    2.0792  -51.8743  -23.4053 C   0  0  0  0  0  0  0  0  0  0  0  0
    1.1058  -51.9331  -19.8064 C   0  0  0  0  0  0  0  0  0  0  0  0
    1.1003  -50.7743  -19.0644 C   0  0  0  0  0  0  0  0  0  0  0  0
    0.2554  -50.6018  -17.9889 C   0  0  0  0  0  0  0  0  0  0  0  0
   -0.6125  -51.6053  -17.6336 C   0  0  0  0  0  0  0  0  0  0  0  0
   -1.4438  -51.4246  -16.5669 F   0  0  0  0  0  0  0  0  0  0  0  0
   -0.6293  -52.7681  -18.3528 C   0  0  0  0  0  0  0  0  0  0  0  0
    0.2322  -52.9335  -19.4428 C   0  0  0  0  0  0  0  0  0  0  0  0
    5.2218  -50.0061  -24.0767 C   0  0  0  0  0  0  0  0  0  0  0  0
    3.8957  -50.5112  -24.2991 N   0  0  0  0  0  0  0  0  0  0  0  0
    3.8607  -50.9172  -25.2608 H   0  0  0  0  0  0  0  0  0  0  0  0
 18 19  1  0  0  0
 19  1  1  0  0  0
  1  2  1  0  0  0
  2  3  1  0  0  0
  3  4  1  0  0  0
  4 11  1  0  0  0
 11 12  2  0  0  0
 12 13  1  0  0  0
 13 14  2  0  0  0
 14 15  1  0  0  0
 14 16  1  0  0  0
 16 17  2  0  0  0
  4  5  1  0  0  0
  5  6  2  0  0  0
  6  7  1  0  0  0
  7  8  2  0  0  0
  8  9  1  0  0  0
  9 10  2  0  0  0
 10  1  1  0  0  0
 17 11  1  0  0  0
 10  5  1  0  0  0
 19 20  1  0  0  0
M  END
> <minimizedAffinity>
-5.94690

> <CNNscore>
0.2318484038

> <CNNaffinity>
5.0779967308

> <CNN_VS>
1.1773254871

> <CNNaffinity_variance>
0.1922989339

$$$$
[H]c1c([H])c([H])c2c(c1[H])[C@]([H])(c1c([H])c([H])c(F)c([H])c1[H])C([H])([H])C([H])([H])[C@]2([H])N([H])C([H])([H])[H]


 20 22  0  0  0  0  0  0  0  0999 V2000
    2.8615  -50.6161  -25.2029 C   0  0  0  0  0  0  0  0  0  0  0  0
    3.5334  -50.5053  -23.8752 C   0  0  0  0  0  0  0  0  0  0  0  0
    2.5189  -50.4741  -22.7562 C   0  0  0  0  0  0  0  0  0  0  0  0
    1.8667  -51.8647  -22.7562 C   0  0  0  0  0  0  0  0  0  0  0  0
    1.0451  -51.8825  -24.0056 C   0  0  0  0  0  0  0  0  0  0  0  0
   -0.1816  -52.4874  -24.0042 C   0  0  0  0  0  0  0  0  0  0  0  0
   -0.9236  -52.4907  -25.1690 C   0  0  0  0  0  0  0  0  0  0  0  0
   -0.4744  -51.9111  -26.3209 C   0  0  0  0  0  0  0  0  0  0  0  0
    0.7760  -51.3054  -26.2873 C   0  0  0  0  0  0  0  0  0  0  0  0
    1.5425  -51.2836  -25.1431 C   0  0  0  0  0  0  0  0  0  0  0  0
    1.1130  -52.1475  -21.5414 C   0  0  0  0  0  0  0  0  0  0  0  0
    0.6310  -53.4150  -21.3083 C   0  0  0  0  0  0  0  0  0  0  0  0
   -0.0858  -53.7244  -20.1722 C   0  0  0  0  0  0  0  0  0  0  0  0
   -0.3355  -52.7516  -19.2353 C   0  0  0  0  0  0  0  0  0  0  0  0
   -1.0466  -53.0684  -18.1149 F   0  0  0  0  0  0  0  0  0  0  0  0
    0.1312  -51.4828  -19.4402 C   0  0  0  0  0  0  0  0  0  0  0  0
    0.8579  -51.1787  -20.5966 C   0  0  0  0  0  0  0  0  0  0  0  0
    4.1237  -48.9152  -26.3547 C   0  0  0  0  0  0  0  0  0  0  0  0
    2.8253  -49.3648  -25.9362 N   0  0  0  0  0  0  0  0  0  0  0  0
    2.2509  -49.5368  -26.7913 H   0  0  0  0  0  0  0  0  0  0  0  0
 18 19  1  0  0  0
 19  1  1  0  0  0
  1  2  1  0  0  0
  2  3  1  0  0  0
  3  4  1  0  0  0
  4 11  1  0  0  0
 11 12  2  0  0  0
 12 13  1  0  0  0
 13 14  2  0  0  0
 14 15  1  0  0  0
 14 16  1  0  0  0
 16 17  2  0  0  0
  4  5  1  0  0  0
  5  6  2  0  0  0
  6  7  1  0  0  0
  7  8  2  0  0  0
  8  9  1  0  0  0
  9 10  2  0  0  0
 10  1  1  0  0  0
 17 11  1  0  0  0
 10  5  1  0  0  0
 19 20  1  0  0  0
M  END
> <minimizedAffinity>
-6.58598

> <CNNscore>
0.1816401780

> <CNNaffinity>
5.0024323463

> <CNN_VS>
0.9086427093

> <CNNaffinity_variance>
0.2475369424

$$$$
[H]OC(=O)C([H])(Oc1c([H])c([H])c(-c2noc([H])c3c(C(=O)C4([H])C([H])([H])C([H])([H])C([H])([H])C4([H])[H])c([H])c([H])c2-3)c([H])c1[H])C(=O)O[H]


 32 35  0  0  0  0  0  0  0  0999 V2000
    0.3064  -53.2792  -24.6246 C   0  0  0  0  0  0  0  0  0  0  0  0
    0.9795  -52.1829  -24.1285 C   0  0  0  0  0  0  0  0  0  0  0  0
    0.7314  -52.0136  -22.7705 C   0  0  0  0  0  0  0  0  0  0  0  0
   -0.1211  -53.0192  -22.3719 C   0  0  0  0  0  0  0  0  0  0  0  0
   -0.7200  -53.3929  -21.1877 C   0  0  0  0  0  0  0  0  0  0  0  0
   -1.5251  -54.4771  -21.1592 N   0  0  0  0  0  0  0  0  0  0  0  0
   -1.7486  -55.1731  -22.2149 O   0  0  0  0  0  0  0  0  0  0  0  0
   -1.2322  -54.9071  -23.3886 C   0  0  0  0  0  0  0  0  0  0  0  0
   -0.3852  -53.8202  -23.5618 C   0  0  0  0  0  0  0  0  0  0  0  0
   -0.4846  -52.6258  -19.9679 C   0  0  0  0  0  0  0  0  0  0  0  0
   -1.0272  -53.0601  -18.7782 C   0  0  0  0  0  0  0  0  0  0  0  0
   -0.8402  -52.3660  -17.5883 C   0  0  0  0  0  0  0  0  0  0  0  0
   -0.1003  -51.2124  -17.5628 C   0  0  0  0  0  0  0  0  0  0  0  0
    0.4535  -50.7639  -18.7627 C   0  0  0  0  0  0  0  0  0  0  0  0
    0.2561  -51.4634  -19.9208 C   0  0  0  0  0  0  0  0  0  0  0  0
    0.1210  -50.4839  -16.4310 O   0  0  0  0  0  0  0  0  0  0  0  0
    0.2744  -49.1179  -16.2688 C   0  0  0  0  0  0  0  0  0  0  0  0
    1.5835  -48.8137  -15.6673 C   0  0  0  0  0  0  0  0  0  0  0  0
    2.5495  -49.6271  -15.7598 O   0  0  0  0  0  0  0  0  0  0  0  0
    1.8260  -47.6503  -14.9816 O   0  0  0  0  0  0  0  0  0  0  0  0
    1.9421  -47.6404  -13.9781 H   0  0  0  0  0  0  0  0  0  0  0  0
   -0.8710  -48.4512  -15.6074 C   0  0  0  0  0  0  0  0  0  0  0  0
   -1.8485  -49.1367  -15.2252 O   0  0  0  0  0  0  0  0  0  0  0  0
   -0.8458  -47.0785  -15.4205 O   0  0  0  0  0  0  0  0  0  0  0  0
   -1.5586  -46.6484  -14.8481 H   0  0  0  0  0  0  0  0  0  0  0  0
    0.5108  -55.0193  -26.1934 O   0  0  0  0  0  0  0  0  0  0  0  0
    0.2894  -53.7977  -25.9849 C   0  0  0  0  0  0  0  0  0  0  0  0
    0.0261  -52.9819  -27.1844 C   0  0  0  0  0  0  0  0  0  0  0  0
    0.5245  -53.5384  -28.4592 C   0  0  0  0  0  0  0  0  0  0  0  0
   -0.3249  -52.8038  -29.5035 C   0  0  0  0  0  0  0  0  0  0  0  0
   -1.5942  -52.4010  -28.8281 C   0  0  0  0  0  0  0  0  0  0  0  0
   -1.4405  -52.7653  -27.3821 C   0  0  0  0  0  0  0  0  0  0  0  0
 26 27  2  0  0  0
 27  1  1  0  0  0
  1  2  2  0  0  0
  2  3  1  0  0  0
  3  4  2  0  0  0
  4  5  1  0  0  0
  5 10  1  0  0  0
 10 11  2  0  0  0
 11 12  1  0  0  0
 12 13  2  0  0  0
 13 16  1  0  0  0
 16 17  1  0  0  0
 17 18  1  0  0  0
 18 19  2  0  0  0
 18 20  1  0  0  0
 17 22  1  0  0  0
 22 23  2  0  0  0
 22 24  1  0  0  0
 13 14  1  0  0  0
 14 15  2  0  0  0
  5  6  2  0  0  0
  6  7  1  0  0  0
  7  8  1  0  0  0
  8  9  2  0  0  0
 27 28  1  0  0  0
 28 29  1  0  0  0
 29 30  1  0  0  0
 30 31  1  0  0  0
 31 32  1  0  0  0
  9  1  1  0  0  0
 32 28  1  0  0  0
  9  4  1  0  0  0
 15 10  1  0  0  0
 20 21  1  0  0  0
 24 25  1  0  0  0
M  END
> <minimizedAffinity>
-9.29914

> <CNNscore>
0.8605954051

> <CNNaffinity>
6.5269517899

> <CNN_VS>
5.6170649529

> <CNNaffinity_variance>
0.4872848392

$$$$
[H]OC(=O)C([H])(Oc1c([H])c([H])c(-c2noc([H])c3c(C(=O)C4([H])C([H])([H])C([H])([H])C([H])([H])C4([H])[H])c([H])c([H])c2-3)c([H])c1[H])C(=O)O[H]


 32 35  0  0  0  0  0  0  0  0999 V2000
    0.6033  -53.0606  -24.5338 C   0  0  0  0  0  0  0  0  0  0  0  0
    1.2189  -52.0088  -23.8891 C   0  0  0  0  0  0  0  0  0  0  0  0
    0.8551  -51.9598  -22.5476 C   0  0  0  0  0  0  0  0  0  0  0  0
   -0.0157  -53.0004  -22.3116 C   0  0  0  0  0  0  0  0  0  0  0  0
   -0.7078  -53.4788  -21.2194 C   0  0  0  0  0  0  0  0  0  0  0  0
   -1.4995  -54.5650  -21.3535 N   0  0  0  0  0  0  0  0  0  0  0  0
   -1.6247  -55.1671  -22.4807 O   0  0  0  0  0  0  0  0  0  0  0  0
   -1.0145  -54.7973  -23.5788 C   0  0  0  0  0  0  0  0  0  0  0  0
   -0.1690  -53.6955  -23.5845 C   0  0  0  0  0  0  0  0  0  0  0  0
   -0.5854  -52.8201  -19.9222 C   0  0  0  0  0  0  0  0  0  0  0  0
   -1.3022  -53.2995  -18.8476 C   0  0  0  0  0  0  0  0  0  0  0  0
   -1.2283  -52.7078  -17.5918 C   0  0  0  0  0  0  0  0  0  0  0  0
   -0.4289  -51.6143  -17.3822 C   0  0  0  0  0  0  0  0  0  0  0  0
    0.3013  -51.1207  -18.4643 C   0  0  0  0  0  0  0  0  0  0  0  0
    0.2126  -51.7194  -19.6904 C   0  0  0  0  0  0  0  0  0  0  0  0
   -0.3114  -50.9866  -16.1768 O   0  0  0  0  0  0  0  0  0  0  0  0
   -1.2914  -50.5592  -15.2978 C   0  0  0  0  0  0  0  0  0  0  0  0
   -1.4788  -49.1025  -15.4028 C   0  0  0  0  0  0  0  0  0  0  0  0
   -0.5413  -48.3506  -15.8014 O   0  0  0  0  0  0  0  0  0  0  0  0
   -2.6613  -48.4872  -15.0779 O   0  0  0  0  0  0  0  0  0  0  0  0
   -2.7526  -47.9183  -14.2480 H   0  0  0  0  0  0  0  0  0  0  0  0
   -1.1241  -51.0548  -13.9120 C   0  0  0  0  0  0  0  0  0  0  0  0
   -0.4701  -50.3742  -13.0871 O   0  0  0  0  0  0  0  0  0  0  0  0
   -1.6933  -52.2642  -13.5471 O   0  0  0  0  0  0  0  0  0  0  0  0
   -1.6971  -52.5300  -12.5723 H   0  0  0  0  0  0  0  0  0  0  0  0
    1.8160  -53.8313  -26.3956 O   0  0  0  0  0  0  0  0  0  0  0  0
    0.7073  -53.4584  -25.9304 C   0  0  0  0  0  0  0  0  0  0  0  0
   -0.4187  -53.4605  -26.8822 C   0  0  0  0  0  0  0  0  0  0  0  0
   -1.4267  -52.3986  -26.6837 C   0  0  0  0  0  0  0  0  0  0  0  0
   -2.1125  -52.3237  -28.0534 C   0  0  0  0  0  0  0  0  0  0  0  0
   -1.1287  -52.8189  -29.0614 C   0  0  0  0  0  0  0  0  0  0  0  0
    0.0609  -53.3067  -28.2904 C   0  0  0  0  0  0  0  0  0  0  0  0
 26 27  2  0  0  0
 27  1  1  0  0  0
  1  2  2  0  0  0
  2  3  1  0  0  0
  3  4  2  0  0  0
  4  5  1  0  0  0
  5 10  1  0  0  0
 10 11  2  0  0  0
 11 12  1  0  0  0
 12 13  2  0  0  0
 13 16  1  0  0  0
 16 17  1  0  0  0
 17 18  1  0  0  0
 18 19  2  0  0  0
 18 20  1  0  0  0
 17 22  1  0  0  0
 22 23  2  0  0  0
 22 24  1  0  0  0
 13 14  1  0  0  0
 14 15  2  0  0  0
  5  6  2  0  0  0
  6  7  1  0  0  0
  7  8  1  0  0  0
  8  9  2  0  0  0
 27 28  1  0  0  0
 28 29  1  0  0  0
 29 30  1  0  0  0
 30 31  1  0  0  0
 31 32  1  0  0  0
  9  1  1  0  0  0
 32 28  1  0  0  0
  9  4  1  0  0  0
 15 10  1  0  0  0
 20 21  1  0  0  0
 24 25  1  0  0  0
M  END
> <minimizedAffinity>
-9.08600

> <CNNscore>
0.8427535295

> <CNNaffinity>
6.5715088844

> <CNN_VS>
5.5381622314

> <CNNaffinity_variance>
0.4576322436

$$$$
[H]OC(=O)C([H])(Oc1c([H])c([H])c(-c2noc([H])c3c(C(=O)C4([H])C([H])([H])C([H])([H])C([H])([H])C4([H])[H])c([H])c([H])c2-3)c([H])c1[H])C(=O)O[H]


 32 35  0  0  0  0  0  0  0  0999 V2000
    0.3857  -53.2190  -24.5867 C   0  0  0  0  0  0  0  0  0  0  0  0
    1.0657  -52.1515  -24.0401 C   0  0  0  0  0  0  0  0  0  0  0  0
    0.7987  -52.0290  -22.6806 C   0  0  0  0  0  0  0  0  0  0  0  0
   -0.0734  -53.0366  -22.3327 C   0  0  0  0  0  0  0  0  0  0  0  0
   -0.6957  -53.4454  -21.1723 C   0  0  0  0  0  0  0  0  0  0  0  0
   -1.5158  -54.5183  -21.1963 N   0  0  0  0  0  0  0  0  0  0  0  0
   -1.7322  -55.1716  -22.2805 O   0  0  0  0  0  0  0  0  0  0  0  0
   -1.1940  -54.8696  -23.4356 C   0  0  0  0  0  0  0  0  0  0  0  0
   -0.3297  -53.7891  -23.5554 C   0  0  0  0  0  0  0  0  0  0  0  0
   -0.4690  -52.7273  -19.9214 C   0  0  0  0  0  0  0  0  0  0  0  0
   -1.1546  -53.1063  -18.7880 C   0  0  0  0  0  0  0  0  0  0  0  0
   -0.9822  -52.4544  -17.5722 C   0  0  0  0  0  0  0  0  0  0  0  0
   -0.1129  -51.4002  -17.4634 C   0  0  0  0  0  0  0  0  0  0  0  0
    0.5864  -51.0083  -18.6059 C   0  0  0  0  0  0  0  0  0  0  0  0
    0.4004  -51.6647  -19.7908 C   0  0  0  0  0  0  0  0  0  0  0  0
    0.1023  -50.7177  -16.3021 O   0  0  0  0  0  0  0  0  0  0  0  0
    1.0879  -50.8816  -15.3442 C   0  0  0  0  0  0  0  0  0  0  0  0
    0.5578  -51.6070  -14.1776 C   0  0  0  0  0  0  0  0  0  0  0  0
    0.4052  -51.0272  -13.0623 O   0  0  0  0  0  0  0  0  0  0  0  0
    0.2067  -52.9322  -14.2322 O   0  0  0  0  0  0  0  0  0  0  0  0
    0.7569  -53.6459  -13.7757 H   0  0  0  0  0  0  0  0  0  0  0  0
    1.8231  -49.6403  -15.0089 C   0  0  0  0  0  0  0  0  0  0  0  0
    1.5624  -48.5815  -15.6273 O   0  0  0  0  0  0  0  0  0  0  0  0
    2.7890  -49.6671  -14.0158 O   0  0  0  0  0  0  0  0  0  0  0  0
    3.1863  -48.7954  -13.6947 H   0  0  0  0  0  0  0  0  0  0  0  0
    0.7871  -54.8479  -26.2349 O   0  0  0  0  0  0  0  0  0  0  0  0
    0.3828  -53.6866  -25.9655 C   0  0  0  0  0  0  0  0  0  0  0  0
   -0.0695  -52.8841  -27.1166 C   0  0  0  0  0  0  0  0  0  0  0  0
    0.2534  -53.4363  -28.4485 C   0  0  0  0  0  0  0  0  0  0  0  0
   -0.7545  -52.7275  -29.3615 C   0  0  0  0  0  0  0  0  0  0  0  0
   -1.9226  -52.3503  -28.5115 C   0  0  0  0  0  0  0  0  0  0  0  0
   -1.5540  -52.7025  -27.1017 C   0  0  0  0  0  0  0  0  0  0  0  0
 26 27  2  0  0  0
 27  1  1  0  0  0
  1  2  2  0  0  0
  2  3  1  0  0  0
  3  4  2  0  0  0
  4  5  1  0  0  0
  5 10  1  0  0  0
 10 11  2  0  0  0
 11 12  1  0  0  0
 12 13  2  0  0  0
 13 16  1  0  0  0
 16 17  1  0  0  0
 17 18  1  0  0  0
 18 19  2  0  0  0
 18 20  1  0  0  0
 17 22  1  0  0  0
 22 23  2  0  0  0
 22 24  1  0  0  0
 13 14  1  0  0  0
 14 15  2  0  0  0
  5  6  2  0  0  0
  6  7  1  0  0  0
  7  8  1  0  0  0
  8  9  2  0  0  0
 27 28  1  0  0  0
 28 29  1  0  0  0
 29 30  1  0  0  0
 30 31  1  0  0  0
 31 32  1  0  0  0
  9  1  1  0  0  0
 32 28  1  0  0  0
  9  4  1  0  0  0
 15 10  1  0  0  0
 20 21  1  0  0  0
 24 25  1  0  0  0
M  END
> <minimizedAffinity>
-9.20749

> <CNNscore>
0.8314408064

> <CNNaffinity>
6.5170478821

> <CNN_VS>
5.4185395241

> <CNNaffinity_variance>
0.3945581019

$$$$
[H]OC(=O)C([H])(Oc1c([H])c([H])c(-c2noc([H])c3c(C(=O)C4([H])C([H])([H])C([H])([H])C([H])([H])C4([H])[H])c([H])c([H])c2-3)c([H])c1[H])C(=O)O[H]


 32 35  0  0  0  0  0  0  0  0999 V2000
    0.3350  -53.3226  -24.5728 C   0  0  0  0  0  0  0  0  0  0  0  0
    1.0785  -52.2607  -24.1033 C   0  0  0  0  0  0  0  0  0  0  0  0
    0.8545  -52.0516  -22.7466 C   0  0  0  0  0  0  0  0  0  0  0  0
   -0.0537  -52.9958  -22.3218 C   0  0  0  0  0  0  0  0  0  0  0  0
   -0.6627  -53.3105  -21.1256 C   0  0  0  0  0  0  0  0  0  0  0  0
   -1.5321  -54.3426  -21.0696 N   0  0  0  0  0  0  0  0  0  0  0  0
   -1.8080  -55.0428  -22.1101 O   0  0  0  0  0  0  0  0  0  0  0  0
   -1.2879  -54.8304  -23.2930 C   0  0  0  0  0  0  0  0  0  0  0  0
   -0.3779  -53.8007  -23.4941 C   0  0  0  0  0  0  0  0  0  0  0  0
   -0.3690  -52.5370  -19.9226 C   0  0  0  0  0  0  0  0  0  0  0  0
    0.3807  -51.3854  -20.0228 C   0  0  0  0  0  0  0  0  0  0  0  0
    0.6951  -50.6138  -18.9099 C   0  0  0  0  0  0  0  0  0  0  0  0
    0.2628  -50.9810  -17.6621 C   0  0  0  0  0  0  0  0  0  0  0  0
   -0.4973  -52.1461  -17.5498 C   0  0  0  0  0  0  0  0  0  0  0  0
   -0.7941  -52.8889  -18.6587 C   0  0  0  0  0  0  0  0  0  0  0  0
    0.5362  -50.2702  -16.5304 O   0  0  0  0  0  0  0  0  0  0  0  0
    1.6379  -49.4953  -16.2117 C   0  0  0  0  0  0  0  0  0  0  0  0
    2.5730  -50.2526  -15.3630 C   0  0  0  0  0  0  0  0  0  0  0  0
    2.1920  -51.2777  -14.7250 O   0  0  0  0  0  0  0  0  0  0  0  0
    3.8893  -49.8942  -15.2166 O   0  0  0  0  0  0  0  0  0  0  0  0
    4.2387  -49.4989  -14.3551 H   0  0  0  0  0  0  0  0  0  0  0  0
    1.3052  -48.1457  -15.7000 C   0  0  0  0  0  0  0  0  0  0  0  0
    2.2201  -47.4060  -15.2672 O   0  0  0  0  0  0  0  0  0  0  0  0
   -0.0133  -47.7197  -15.7072 O   0  0  0  0  0  0  0  0  0  0  0  0
   -0.2178  -46.7543  -15.4905 H   0  0  0  0  0  0  0  0  0  0  0  0
    0.3774  -55.1049  -26.1065 O   0  0  0  0  0  0  0  0  0  0  0  0
    0.2730  -53.8639  -25.9229 C   0  0  0  0  0  0  0  0  0  0  0  0
    0.0927  -53.0506  -27.1393 C   0  0  0  0  0  0  0  0  0  0  0  0
    0.6238  -53.6380  -28.3867 C   0  0  0  0  0  0  0  0  0  0  0  0
   -0.1515  -52.8821  -29.4728 C   0  0  0  0  0  0  0  0  0  0  0  0
   -1.4322  -52.4251  -28.8563 C   0  0  0  0  0  0  0  0  0  0  0  0
   -1.3547  -52.7807  -27.4019 C   0  0  0  0  0  0  0  0  0  0  0  0
 26 27  2  0  0  0
 27  1  1  0  0  0
  1  2  2  0  0  0
  2  3  1  0  0  0
  3  4  2  0  0  0
  4  5  1  0  0  0
  5 10  1  0  0  0
 10 11  2  0  0  0
 11 12  1  0  0  0
 12 13  2  0  0  0
 13 16  1  0  0  0
 16 17  1  0  0  0
 17 18  1  0  0  0
 18 19  2  0  0  0
 18 20  1  0  0  0
 17 22  1  0  0  0
 22 23  2  0  0  0
 22 24  1  0  0  0
 13 14  1  0  0  0
 14 15  2  0  0  0
  5  6  2  0  0  0
  6  7  1  0  0  0
  7  8  1  0  0  0
  8  9  2  0  0  0
 27 28  1  0  0  0
 28 29  1  0  0  0
 29 30  1  0  0  0
 30 31  1  0  0  0
 31 32  1  0  0  0
  9  1  1  0  0  0
 32 28  1  0  0  0
  9  4  1  0  0  0
 15 10  1  0  0  0
 20 21  1  0  0  0
 24 25  1  0  0  0
M  END
> <minimizedAffinity>
-9.27049

> <CNNscore>
0.8207665086

> <CNNaffinity>
6.4794950485

> <CNN_VS>
5.3181524277

> <CNNaffinity_variance>
0.4468000829

$$$$
[H]OC(=O)C([H])(Oc1c([H])c([H])c(-c2noc([H])c3c(C(=O)C4([H])C([H])([H])C([H])([H])C([H])([H])C4([H])[H])c([H])c([H])c2-3)c([H])c1[H])C(=O)O[H]


 32 35  0  0  0  0  0  0  0  0999 V2000
    0.3465  -53.2159  -24.5192 C   0  0  0  0  0  0  0  0  0  0  0  0
    1.0586  -52.1431  -24.0265 C   0  0  0  0  0  0  0  0  0  0  0  0
    0.8385  -51.9777  -22.6632 C   0  0  0  0  0  0  0  0  0  0  0  0
   -0.0351  -52.9621  -22.2576 C   0  0  0  0  0  0  0  0  0  0  0  0
   -0.6241  -53.3283  -21.0661 C   0  0  0  0  0  0  0  0  0  0  0  0
   -1.4590  -54.3896  -21.0319 N   0  0  0  0  0  0  0  0  0  0  0  0
   -1.7200  -55.0705  -22.0888 O   0  0  0  0  0  0  0  0  0  0  0  0
   -1.2163  -54.8097  -23.2692 C   0  0  0  0  0  0  0  0  0  0  0  0
   -0.3420  -53.7457  -23.4488 C   0  0  0  0  0  0  0  0  0  0  0  0
   -0.3464  -52.5779  -19.8448 C   0  0  0  0  0  0  0  0  0  0  0  0
   -0.9036  -52.9901  -18.6540 C   0  0  0  0  0  0  0  0  0  0  0  0
   -0.6778  -52.3102  -17.4626 C   0  0  0  0  0  0  0  0  0  0  0  0
    0.1166  -51.1936  -17.4367 C   0  0  0  0  0  0  0  0  0  0  0  0
    0.6857  -50.7677  -18.6377 C   0  0  0  0  0  0  0  0  0  0  0  0
    0.4495  -51.4526  -19.7973 C   0  0  0  0  0  0  0  0  0  0  0  0
    0.3780  -50.4808  -16.3034 O   0  0  0  0  0  0  0  0  0  0  0  0
    1.4223  -50.5954  -15.4021 C   0  0  0  0  0  0  0  0  0  0  0  0
    2.7142  -50.4051  -16.0827 C   0  0  0  0  0  0  0  0  0  0  0  0
    3.1715  -49.2451  -16.3029 O   0  0  0  0  0  0  0  0  0  0  0  0
    3.4822  -51.4579  -16.5115 O   0  0  0  0  0  0  0  0  0  0  0  0
    3.5845  -51.6748  -17.4929 H   0  0  0  0  0  0  0  0  0  0  0  0
    1.3561  -51.8008  -14.5440 C   0  0  0  0  0  0  0  0  0  0  0  0
    0.2407  -52.2267  -14.1618 O   0  0  0  0  0  0  0  0  0  0  0  0
    2.5285  -52.4409  -14.1758 O   0  0  0  0  0  0  0  0  0  0  0  0
    2.4731  -53.3363  -13.7112 H   0  0  0  0  0  0  0  0  0  0  0  0
    0.5533  -54.9324  -26.1135 O   0  0  0  0  0  0  0  0  0  0  0  0
    0.2917  -53.7229  -25.8830 C   0  0  0  0  0  0  0  0  0  0  0  0
   -0.0564  -52.9081  -27.0614 C   0  0  0  0  0  0  0  0  0  0  0  0
    0.3669  -53.4566  -28.3665 C   0  0  0  0  0  0  0  0  0  0  0  0
   -0.5552  -52.7301  -29.3532 C   0  0  0  0  0  0  0  0  0  0  0  0
   -1.7839  -52.3434  -28.5981 C   0  0  0  0  0  0  0  0  0  0  0  0
   -1.5349  -52.7083  -27.1655 C   0  0  0  0  0  0  0  0  0  0  0  0
 26 27  2  0  0  0
 27  1  1  0  0  0
  1  2  2  0  0  0
  2  3  1  0  0  0
  3  4  2  0  0  0
  4  5  1  0  0  0
  5 10  1  0  0  0
 10 11  2  0  0  0
 11 12  1  0  0  0
 12 13  2  0  0  0
 13 16  1  0  0  0
 16 17  1  0  0  0
 17 18  1  0  0  0
 18 19  2  0  0  0
 18 20  1  0  0  0
 17 22  1  0  0  0
 22 23  2  0  0  0
 22 24  1  0  0  0
 13 14  1  0  0  0
 14 15  2  0  0  0
  5  6  2  0  0  0
  6  7  1  0  0  0
  7  8  1  0  0  0
  8  9  2  0  0  0
 27 28  1  0  0  0
 28 29  1  0  0  0
 29 30  1  0  0  0
 30 31  1  0  0  0
 31 32  1  0  0  0
  9  1  1  0  0  0
 32 28  1  0  0  0
  9  4  1  0  0  0
 15 10  1  0  0  0
 20 21  1  0  0  0
 24 25  1  0  0  0
M  END
> <minimizedAffinity>
-9.44173

> <CNNscore>
0.7923092246

> <CNNaffinity>
6.4996061325

> <CNN_VS>
5.1496977806

> <CNNaffinity_variance>
0.3280209005

$$$$
[H]OC(=O)C([H])(Oc1c([H])c([H])c(-c2noc([H])c3c(C(=O)C4([H])C([H])([H])C([H])([H])C([H])([H])C4([H])[H])c([H])c([H])c2-3)c([H])c1[H])C(=O)O[H]


 32 35  0  0  0  0  0  0  0  0999 V2000
    0.2740  -53.2656  -24.4636 C   0  0  0  0  0  0  0  0  0  0  0  0
    1.1253  -52.2259  -24.1551 C   0  0  0  0  0  0  0  0  0  0  0  0
    1.1688  -52.0027  -22.7830 C   0  0  0  0  0  0  0  0  0  0  0  0
    0.3288  -52.9148  -22.1835 C   0  0  0  0  0  0  0  0  0  0  0  0
   -0.0520  -53.2033  -20.8902 C   0  0  0  0  0  0  0  0  0  0  0  0
   -0.9265  -54.2065  -20.6593 N   0  0  0  0  0  0  0  0  0  0  0  0
   -1.4158  -54.9027  -21.6209 O   0  0  0  0  0  0  0  0  0  0  0  0
   -1.1229  -54.7134  -22.8832 C   0  0  0  0  0  0  0  0  0  0  0  0
   -0.2361  -53.7148  -23.2642 C   0  0  0  0  0  0  0  0  0  0  0  0
    0.4879  -52.4335  -19.7732 C   0  0  0  0  0  0  0  0  0  0  0  0
   -0.3361  -52.0939  -18.7225 C   0  0  0  0  0  0  0  0  0  0  0  0
    0.1232  -51.3574  -17.6365 C   0  0  0  0  0  0  0  0  0  0  0  0
    1.4278  -50.9411  -17.5780 C   0  0  0  0  0  0  0  0  0  0  0  0
    2.2707  -51.2799  -18.6374 C   0  0  0  0  0  0  0  0  0  0  0  0
    1.7965  -52.0051  -19.6951 C   0  0  0  0  0  0  0  0  0  0  0  0
    1.9418  -50.2162  -16.5431 O   0  0  0  0  0  0  0  0  0  0  0  0
    3.1945  -50.2689  -15.9566 C   0  0  0  0  0  0  0  0  0  0  0  0
    3.3776  -51.5449  -15.2449 C   0  0  0  0  0  0  0  0  0  0  0  0
    2.5379  -51.9379  -14.3826 O   0  0  0  0  0  0  0  0  0  0  0  0
    4.4531  -52.3661  -15.4714 O   0  0  0  0  0  0  0  0  0  0  0  0
    5.1906  -52.4745  -14.7895 H   0  0  0  0  0  0  0  0  0  0  0  0
    3.5445  -49.0700  -15.1603 C   0  0  0  0  0  0  0  0  0  0  0  0
    4.2501  -49.1957  -14.1318 O   0  0  0  0  0  0  0  0  0  0  0  0
    3.0869  -47.8260  -15.5639 O   0  0  0  0  0  0  0  0  0  0  0  0
    3.4410  -46.9999  -15.1023 H   0  0  0  0  0  0  0  0  0  0  0  0
   -0.3813  -55.0235  -25.8817 O   0  0  0  0  0  0  0  0  0  0  0  0
   -0.0591  -53.8116  -25.7714 C   0  0  0  0  0  0  0  0  0  0  0  0
   -0.0495  -53.0360  -27.0252 C   0  0  0  0  0  0  0  0  0  0  0  0
    0.5782  -53.7021  -28.1852 C   0  0  0  0  0  0  0  0  0  0  0  0
   -0.0204  -52.9426  -29.3755 C   0  0  0  0  0  0  0  0  0  0  0  0
   -1.3296  -52.3851  -28.9232 C   0  0  0  0  0  0  0  0  0  0  0  0
   -1.4380  -52.6887  -27.4591 C   0  0  0  0  0  0  0  0  0  0  0  0
 26 27  2  0  0  0
 27  1  1  0  0  0
  1  2  2  0  0  0
  2  3  1  0  0  0
  3  4  2  0  0  0
  4  5  1  0  0  0
  5 10  1  0  0  0
 10 11  2  0  0  0
 11 12  1  0  0  0
 12 13  2  0  0  0
 13 16  1  0  0  0
 16 17  1  0  0  0
 17 18  1  0  0  0
 18 19  2  0  0  0
 18 20  1  0  0  0
 17 22  1  0  0  0
 22 23  2  0  0  0
 22 24  1  0  0  0
 13 14  1  0  0  0
 14 15  2  0  0  0
  5  6  2  0  0  0
  6  7  1  0  0  0
  7  8  1  0  0  0
  8  9  2  0  0  0
 27 28  1  0  0  0
 28 29  1  0  0  0
 29 30  1  0  0  0
 30 31  1  0  0  0
 31 32  1  0  0  0
  9  1  1  0  0  0
 32 28  1  0  0  0
  9  4  1  0  0  0
 15 10  1  0  0  0
 20 21  1  0  0  0
 24 25  1  0  0  0
M  END
> <minimizedAffinity>
-8.96954

> <CNNscore>
0.6341056824

> <CNNaffinity>
6.1819143295

> <CNN_VS>
3.9199869633

> <CNNaffinity_variance>
0.4723263383

$$$$
[H]OC(=O)C([H])(Oc1c([H])c([H])c(-c2noc([H])c3c(C(=O)C4([H])C([H])([H])C([H])([H])C([H])([H])C4([H])[H])c([H])c([H])c2-3)c([H])c1[H])C(=O)O[H]


 32 35  0  0  0  0  0  0  0  0999 V2000
    0.0960  -52.6379  -23.9185 C   0  0  0  0  0  0  0  0  0  0  0  0
    0.6955  -51.4853  -23.4570 C   0  0  0  0  0  0  0  0  0  0  0  0
    0.5745  -51.3746  -22.0759 C   0  0  0  0  0  0  0  0  0  0  0  0
   -0.1181  -52.4769  -21.6265 C   0  0  0  0  0  0  0  0  0  0  0  0
   -0.5457  -52.9408  -20.4006 C   0  0  0  0  0  0  0  0  0  0  0  0
   -1.2220  -54.1076  -20.3266 N   0  0  0  0  0  0  0  0  0  0  0  0
   -1.4788  -54.8004  -21.3769 O   0  0  0  0  0  0  0  0  0  0  0  0
   -1.1202  -54.4529  -22.5875 C   0  0  0  0  0  0  0  0  0  0  0  0
   -0.4179  -53.2755  -22.8095 C   0  0  0  0  0  0  0  0  0  0  0  0
   -0.2676  -52.1797  -19.1861 C   0  0  0  0  0  0  0  0  0  0  0  0
    0.5388  -51.0645  -19.2542 C   0  0  0  0  0  0  0  0  0  0  0  0
    0.8414  -50.3064  -18.1289 C   0  0  0  0  0  0  0  0  0  0  0  0
    0.3398  -50.6507  -16.9006 C   0  0  0  0  0  0  0  0  0  0  0  0
   -0.4781  -51.7788  -16.8209 C   0  0  0  0  0  0  0  0  0  0  0  0
   -0.7620  -52.5090  -17.9415 C   0  0  0  0  0  0  0  0  0  0  0  0
    0.5977  -49.9514  -15.7582 O   0  0  0  0  0  0  0  0  0  0  0  0
    1.7831  -49.7930  -15.0613 C   0  0  0  0  0  0  0  0  0  0  0  0
    2.3425  -48.4508  -15.2934 C   0  0  0  0  0  0  0  0  0  0  0  0
    2.3827  -47.5907  -14.3650 O   0  0  0  0  0  0  0  0  0  0  0  0
    2.8421  -48.0620  -16.5106 O   0  0  0  0  0  0  0  0  0  0  0  0
    2.3570  -47.3956  -17.0947 H   0  0  0  0  0  0  0  0  0  0  0  0
    2.7511  -50.8984  -15.2480 C   0  0  0  0  0  0  0  0  0  0  0  0
    2.6034  -51.9643  -14.6050 O   0  0  0  0  0  0  0  0  0  0  0  0
    3.8068  -50.7385  -16.1311 O   0  0  0  0  0  0  0  0  0  0  0  0
    4.3800  -51.5383  -16.3600 H   0  0  0  0  0  0  0  0  0  0  0  0
   -1.1379  -53.3873  -25.7750 O   0  0  0  0  0  0  0  0  0  0  0  0
   -0.0078  -53.1248  -25.2866 C   0  0  0  0  0  0  0  0  0  0  0  0
    1.1426  -53.3457  -26.1819 C   0  0  0  0  0  0  0  0  0  0  0  0
    1.2148  -52.4595  -27.3620 C   0  0  0  0  0  0  0  0  0  0  0  0
    2.6935  -52.5458  -27.7592 C   0  0  0  0  0  0  0  0  0  0  0  0
    3.4559  -52.9049  -26.5266 C   0  0  0  0  0  0  0  0  0  0  0  0
    2.4377  -53.1623  -25.4568 C   0  0  0  0  0  0  0  0  0  0  0  0
 26 27  2  0  0  0
 27  1  1  0  0  0
  1  2  2  0  0  0
  2  3  1  0  0  0
  3  4  2  0  0  0
  4  5  1  0  0  0
  5 10  1  0  0  0
 10 11  2  0  0  0
 11 12  1  0  0  0
 12 13  2  0  0  0
 13 16  1  0  0  0
 16 17  1  0  0  0
 17 18  1  0  0  0
 18 19  2  0  0  0
 18 20  1  0  0  0
 17 22  1  0  0  0
 22 23  2  0  0  0
 22 24  1  0  0  0
 13 14  1  0  0  0
 14 15  2  0  0  0
  5  6  2  0  0  0
  6  7  1  0  0  0
  7  8  1  0  0  0
  8  9  2  0  0  0
 27 28  1  0  0  0
 28 29  1  0  0  0
 29 30  1  0  0  0
 30 31  1  0  0  0
 31 32  1  0  0  0
  9  1  1  0  0  0
 32 28  1  0  0  0
  9  4  1  0  0  0
 15 10  1  0  0  0
 20 21  1  0  0  0
 24 25  1  0  0  0
M  END
> <minimizedAffinity>
-8.07866

> <CNNscore>
0.5172927380

> <CNNaffinity>
6.1046986580

> <CNN_VS>
3.1579163074

> <CNNaffinity_variance>
0.4613844454

$$$$
[H]OC(=O)C([H])(Oc1c([H])c([H])c(-c2noc([H])c3c(C(=O)C4([H])C([H])([H])C([H])([H])C([H])([H])C4([H])[H])c([H])c([H])c2-3)c([H])c1[H])C(=O)O[H]


 32 35  0  0  0  0  0  0  0  0999 V2000
    0.9794  -51.8600  -25.3368 C   0  0  0  0  0  0  0  0  0  0  0  0
    1.6613  -50.7957  -24.7863 C   0  0  0  0  0  0  0  0  0  0  0  0
    1.6677  -50.8676  -23.3973 C   0  0  0  0  0  0  0  0  0  0  0  0
    0.9759  -52.0016  -23.0336 C   0  0  0  0  0  0  0  0  0  0  0  0
    0.6413  -52.6139  -21.8445 C   0  0  0  0  0  0  0  0  0  0  0  0
   -0.0701  -53.7620  -21.8612 N   0  0  0  0  0  0  0  0  0  0  0  0
   -0.4456  -54.3010  -22.9645 O   0  0  0  0  0  0  0  0  0  0  0  0
   -0.1827  -53.8042  -24.1474 C   0  0  0  0  0  0  0  0  0  0  0  0
    0.5417  -52.6265  -24.2778 C   0  0  0  0  0  0  0  0  0  0  0  0
    1.0552  -52.0297  -20.5721 C   0  0  0  0  0  0  0  0  0  0  0  0
    0.0980  -51.5801  -19.6888 C   0  0  0  0  0  0  0  0  0  0  0  0
    0.4355  -51.0102  -18.4665 C   0  0  0  0  0  0  0  0  0  0  0  0
    1.7491  -50.8764  -18.0985 C   0  0  0  0  0  0  0  0  0  0  0  0
    2.7264  -51.3287  -18.9862 C   0  0  0  0  0  0  0  0  0  0  0  0
    2.3705  -51.8859  -20.1830 C   0  0  0  0  0  0  0  0  0  0  0  0
    2.1480  -50.3266  -16.9156 O   0  0  0  0  0  0  0  0  0  0  0  0
    1.3992  -49.7363  -15.9122 C   0  0  0  0  0  0  0  0  0  0  0  0
    1.5142  -48.2698  -15.9776 C   0  0  0  0  0  0  0  0  0  0  0  0
    2.5426  -47.7167  -16.4671 O   0  0  0  0  0  0  0  0  0  0  0  0
    0.5292  -47.4330  -15.5171 O   0  0  0  0  0  0  0  0  0  0  0  0
    0.6475  -46.8875  -14.6751 H   0  0  0  0  0  0  0  0  0  0  0  0
    1.6293  -50.3073  -14.5650 C   0  0  0  0  0  0  0  0  0  0  0  0
    2.1799  -49.6070  -13.6829 O   0  0  0  0  0  0  0  0  0  0  0  0
    1.2325  -51.6078  -14.2988 O   0  0  0  0  0  0  0  0  0  0  0  0
    1.2625  -51.9444  -13.3466 H   0  0  0  0  0  0  0  0  0  0  0  0
    1.6414  -51.9523  -27.5916 O   0  0  0  0  0  0  0  0  0  0  0  0
    0.7359  -52.1566  -26.7412 C   0  0  0  0  0  0  0  0  0  0  0  0
   -0.5298  -52.6951  -27.2719 C   0  0  0  0  0  0  0  0  0  0  0  0
   -1.7547  -51.9840  -26.8507 C   0  0  0  0  0  0  0  0  0  0  0  0
   -2.7697  -52.3947  -27.9245 C   0  0  0  0  0  0  0  0  0  0  0  0
   -1.9912  -52.7437  -29.1498 C   0  0  0  0  0  0  0  0  0  0  0  0
   -0.5432  -52.6758  -28.7673 C   0  0  0  0  0  0  0  0  0  0  0  0
 26 27  2  0  0  0
 27  1  1  0  0  0
  1  2  2  0  0  0
  2  3  1  0  0  0
  3  4  2  0  0  0
  4  5  1  0  0  0
  5 10  1  0  0  0
 10 11  2  0  0  0
 11 12  1  0  0  0
 12 13  2  0  0  0
 13 16  1  0  0  0
 16 17  1  0  0  0
 17 18  1  0  0  0
 18 19  2  0  0  0
 18 20  1  0  0  0
 17 22  1  0  0  0
 22 23  2  0  0  0
 22 24  1  0  0  0
 13 14  1  0  0  0
 14 15  2  0  0  0
  5  6  2  0  0  0
  6  7  1  0  0  0
  7  8  1  0  0  0
  8  9  2  0  0  0
 27 28  1  0  0  0
 28 29  1  0  0  0
 29 30  1  0  0  0
 30 31  1  0  0  0
 31 32  1  0  0  0
  9  1  1  0  0  0
 32 28  1  0  0  0
  9  4  1  0  0  0
 15 10  1  0  0  0
 20 21  1  0  0  0
 24 25  1  0  0  0
M  END
> <minimizedAffinity>
-7.76683

> <CNNscore>
0.4989610314

> <CNNaffinity>
6.1383132935

> <CNN_VS>
3.0627791882

> <CNNaffinity_variance>
0.8365114927

$$$$
[H]OC(=O)C([H])(Oc1c([H])c([H])c(-c2noc([H])c3c(C(=O)C4([H])C([H])([H])C([H])([H])C([H])([H])C4([H])[H])c([H])c([H])c2-3)c([H])c1[H])C(=O)O[H]


 32 35  0  0  0  0  0  0  0  0999 V2000
    0.5442  -53.6901  -25.1505 C   0  0  0  0  0  0  0  0  0  0  0  0
    1.4899  -52.6913  -25.0570 C   0  0  0  0  0  0  0  0  0  0  0  0
    1.5133  -52.1399  -23.7803 C   0  0  0  0  0  0  0  0  0  0  0  0
    0.5637  -52.7916  -23.0252 C   0  0  0  0  0  0  0  0  0  0  0  0
    0.1141  -52.7133  -21.7242 C   0  0  0  0  0  0  0  0  0  0  0  0
   -0.8679  -53.5410  -21.3057 N   0  0  0  0  0  0  0  0  0  0  0  0
   -1.3971  -54.4047  -22.0949 O   0  0  0  0  0  0  0  0  0  0  0  0
   -1.0462  -54.5628  -23.3466 C   0  0  0  0  0  0  0  0  0  0  0  0
   -0.0478  -53.7778  -23.9087 C   0  0  0  0  0  0  0  0  0  0  0  0
    0.6963  -51.7448  -20.7997 C   0  0  0  0  0  0  0  0  0  0  0  0
    1.5810  -52.1751  -19.8349 C   0  0  0  0  0  0  0  0  0  0  0  0
    2.1605  -51.2979  -18.9254 C   0  0  0  0  0  0  0  0  0  0  0  0
    1.8648  -49.9600  -18.9615 C   0  0  0  0  0  0  0  0  0  0  0  0
    0.9697  -49.5139  -19.9349 C   0  0  0  0  0  0  0  0  0  0  0  0
    0.4121  -50.3954  -20.8191 C   0  0  0  0  0  0  0  0  0  0  0  0
    2.3973  -49.0469  -18.0992 O   0  0  0  0  0  0  0  0  0  0  0  0
    3.6683  -48.9729  -17.5562 C   0  0  0  0  0  0  0  0  0  0  0  0
    3.6098  -48.4723  -16.1726 C   0  0  0  0  0  0  0  0  0  0  0  0
    2.6253  -48.7397  -15.4226 O   0  0  0  0  0  0  0  0  0  0  0  0
    4.6027  -47.6982  -15.6274 O   0  0  0  0  0  0  0  0  0  0  0  0
    4.4664  -46.7147  -15.4408 H   0  0  0  0  0  0  0  0  0  0  0  0
    4.6574  -48.2809  -18.4145 C   0  0  0  0  0  0  0  0  0  0  0  0
    4.4332  -47.1071  -18.7929 O   0  0  0  0  0  0  0  0  0  0  0  0
    5.8172  -48.9413  -18.7869 O   0  0  0  0  0  0  0  0  0  0  0  0
    6.5491  -48.4225  -19.2517 H   0  0  0  0  0  0  0  0  0  0  0  0
    0.4421  -55.7443  -26.2911 O   0  0  0  0  0  0  0  0  0  0  0  0
    0.1969  -54.5096  -26.3027 C   0  0  0  0  0  0  0  0  0  0  0  0
   -0.4407  -53.9959  -27.5288 C   0  0  0  0  0  0  0  0  0  0  0  0
   -1.2897  -52.7991  -27.3556 C   0  0  0  0  0  0  0  0  0  0  0  0
   -1.3505  -52.2200  -28.7743 C   0  0  0  0  0  0  0  0  0  0  0  0
   -0.1215  -52.6804  -29.4863 C   0  0  0  0  0  0  0  0  0  0  0  0
    0.5802  -53.6241  -28.5565 C   0  0  0  0  0  0  0  0  0  0  0  0
 26 27  2  0  0  0
 27  1  1  0  0  0
  1  2  2  0  0  0
  2  3  1  0  0  0
  3  4  2  0  0  0
  4  5  1  0  0  0
  5 10  1  0  0  0
 10 11  2  0  0  0
 11 12  1  0  0  0
 12 13  2  0  0  0
 13 16  1  0  0  0
 16 17  1  0  0  0
 17 18  1  0  0  0
 18 19  2  0  0  0
 18 20  1  0  0  0
 17 22  1  0  0  0
 22 23  2  0  0  0
 22 24  1  0  0  0
 13 14  1  0  0  0
 14 15  2  0  0  0
  5  6  2  0  0  0
  6  7  1  0  0  0
  7  8  1  0  0  0
  8  9  2  0  0  0
 27 28  1  0  0  0
 28 29  1  0  0  0
 29 30  1  0  0  0
 30 31  1  0  0  0
 31 32  1  0  0  0
  9  1  1  0  0  0
 32 28  1  0  0  0
  9  4  1  0  0  0
 15 10  1  0  0  0
 20 21  1  0  0  0
 24 25  1  0  0  0
M  END
> <minimizedAffinity>
-7.97589

> <CNNscore>
0.4818795025

> <CNNaffinity>
6.3119573593

> <CNN_VS>
3.0416028500

> <CNNaffinity_variance>
0.9517466426

$$$$
[H]c1c(OC([H])([H])[H])c([H])c2c3nnc(SC([H])([H])[H])nc3n(C([H])([H])[H])c2c1[H]


 18 20  0  0  0  0  0  0  0  0999 V2000
   -0.6028  -51.7534  -16.8303 C   0  0  0  0  0  0  0  0  0  0  0  0
    0.3079  -50.7545  -17.1011 C   0  0  0  0  0  0  0  0  0  0  0  0
    0.8114  -50.6336  -18.3976 C   0  0  0  0  0  0  0  0  0  0  0  0
    0.4201  -51.4903  -19.4176 C   0  0  0  0  0  0  0  0  0  0  0  0
   -0.4896  -52.4814  -19.1293 C   0  0  0  0  0  0  0  0  0  0  0  0
   -0.9973  -52.6081  -17.8355 C   0  0  0  0  0  0  0  0  0  0  0  0
   -0.7178  -53.1917  -20.2863 C   0  0  0  0  0  0  0  0  0  0  0  0
   -1.5113  -54.2447  -20.5378 N   0  0  0  0  0  0  0  0  0  0  0  0
   -1.5499  -54.7490  -21.7594 N   0  0  0  0  0  0  0  0  0  0  0  0
   -0.7924  -54.1885  -22.7049 C   0  0  0  0  0  0  0  0  0  0  0  0
    0.0125  -53.1359  -22.4901 N   0  0  0  0  0  0  0  0  0  0  0  0
    0.0778  -52.5920  -21.2504 C   0  0  0  0  0  0  0  0  0  0  0  0
    0.7663  -51.5633  -20.7264 N   0  0  0  0  0  0  0  0  0  0  0  0
    1.7088  -50.6924  -21.4381 C   0  0  0  0  0  0  0  0  0  0  0  0
   -2.2992  -51.3150  -15.0927 C   0  0  0  0  0  0  0  0  0  0  0  0
   -1.1375  -51.9245  -15.5678 O   0  0  0  0  0  0  0  0  0  0  0  0
   -0.8679  -54.8969  -24.3474 S   0  0  0  0  0  0  0  0  0  0  0  0
    0.2072  -53.9312  -25.4586 C   0  0  0  0  0  0  0  0  0  0  0  0
 15 16  1  0  0  0
 16  1  1  0  0  0
  1  2  2  0  0  0
  2  3  1  0  0  0
  3  4  2  0  0  0
  4  5  1  0  0  0
  5  6  2  0  0  0
  5  7  1  0  0  0
  7  8  2  0  0  0
  8  9  1  0  0  0
  9 10  2  0  0  0
 10 17  1  0  0  0
 17 18  1  0  0  0
 10 11  1  0  0  0
 11 12  2  0  0  0
 12 13  1  0  0  0
 13 14  1  0  0  0
  6  1  1  0  0  0
 12  7  1  0  0  0
 13  4  1  0  0  0
M  END
> <minimizedAffinity>
-5.98343

> <CNNscore>
0.8675366044

> <CNNaffinity>
5.4485025406

> <CNN_VS>
4.7267751694

> <CNNaffinity_variance>
0.1370588988

$$$$
[H]c1c(OC([H])([H])[H])c([H])c2c3nnc(SC([H])([H])[H])nc3n(C([H])([H])[H])c2c1[H]


 18 20  0  0  0  0  0  0  0  0999 V2000
   -0.5150  -52.6344  -19.3609 C   0  0  0  0  0  0  0  0  0  0  0  0
    0.2983  -51.5212  -19.3561 C   0  0  0  0  0  0  0  0  0  0  0  0
    0.8827  -51.1072  -20.5545 C   0  0  0  0  0  0  0  0  0  0  0  0
    0.6669  -51.7851  -21.7466 C   0  0  0  0  0  0  0  0  0  0  0  0
   -0.1476  -52.8940  -21.7328 C   0  0  0  0  0  0  0  0  0  0  0  0
   -0.7353  -53.3136  -20.5385 C   0  0  0  0  0  0  0  0  0  0  0  0
   -0.2075  -53.3874  -23.0166 C   0  0  0  0  0  0  0  0  0  0  0  0
   -0.8588  -54.4422  -23.5312 N   0  0  0  0  0  0  0  0  0  0  0  0
   -0.7486  -54.7042  -24.8224 N   0  0  0  0  0  0  0  0  0  0  0  0
    0.0125  -53.9042  -25.5727 C   0  0  0  0  0  0  0  0  0  0  0  0
    0.6779  -52.8417  -25.0931 N   0  0  0  0  0  0  0  0  0  0  0  0
    0.5885  -52.5420  -23.7743 C   0  0  0  0  0  0  0  0  0  0  0  0
    1.1176  -51.5730  -23.0075 N   0  0  0  0  0  0  0  0  0  0  0  0
    2.0100  -50.4974  -23.4546 C   0  0  0  0  0  0  0  0  0  0  0  0
   -1.1744  -52.4083  -16.9938 C   0  0  0  0  0  0  0  0  0  0  0  0
   -1.1221  -53.0938  -18.2079 O   0  0  0  0  0  0  0  0  0  0  0  0
    0.1406  -54.2883  -27.3166 S   0  0  0  0  0  0  0  0  0  0  0  0
    1.1863  -53.0322  -28.1241 C   0  0  0  0  0  0  0  0  0  0  0  0
 15 16  1  0  0  0
 16  1  1  0  0  0
  1  2  2  0  0  0
  2  3  1  0  0  0
  3  4  2  0  0  0
  4  5  1  0  0  0
  5  6  2  0  0  0
  5  7  1  0  0  0
  7  8  2  0  0  0
  8  9  1  0  0  0
  9 10  2  0  0  0
 10 17  1  0  0  0
 17 18  1  0  0  0
 10 11  1  0  0  0
 11 12  2  0  0  0
 12 13  1  0  0  0
 13 14  1  0  0  0
  6  1  1  0  0  0
 12  7  1  0  0  0
 13  4  1  0  0  0
M  END
> <minimizedAffinity>
-6.55311

> <CNNscore>
0.8388934135

> <CNNaffinity>
5.6766576767

> <CNN_VS>
4.7621107101

> <CNNaffinity_variance>
0.0884629637

$$$$
[H]c1c(OC([H])([H])[H])c([H])c2c3nnc(SC([H])([H])[H])nc3n(C([H])([H])[H])c2c1[H]


 18 20  0  0  0  0  0  0  0  0999 V2000
   -0.1415  -53.1469  -25.9521 C   0  0  0  0  0  0  0  0  0  0  0  0
    0.6840  -52.0465  -26.0436 C   0  0  0  0  0  0  0  0  0  0  0  0
    1.0274  -51.3615  -24.8766 C   0  0  0  0  0  0  0  0  0  0  0  0
    0.5607  -51.7584  -23.6307 C   0  0  0  0  0  0  0  0  0  0  0  0
   -0.2620  -52.8588  -23.5583 C   0  0  0  0  0  0  0  0  0  0  0  0
   -0.6094  -53.5485  -24.7207 C   0  0  0  0  0  0  0  0  0  0  0  0
   -0.5889  -53.0526  -22.2351 C   0  0  0  0  0  0  0  0  0  0  0  0
   -1.3554  -53.9786  -21.6380 N   0  0  0  0  0  0  0  0  0  0  0  0
   -1.5102  -53.9427  -20.3254 N   0  0  0  0  0  0  0  0  0  0  0  0
   -0.8940  -52.9791  -19.6369 C   0  0  0  0  0  0  0  0  0  0  0  0
   -0.1207  -52.0372  -20.1996 N   0  0  0  0  0  0  0  0  0  0  0  0
    0.0612  -52.0426  -21.5427 C   0  0  0  0  0  0  0  0  0  0  0  0
    0.7565  -51.2595  -22.3854 N   0  0  0  0  0  0  0  0  0  0  0  0
    1.5677  -50.0921  -22.0218 C   0  0  0  0  0  0  0  0  0  0  0  0
   -0.2753  -53.4908  -28.3920 C   0  0  0  0  0  0  0  0  0  0  0  0
   -0.5171  -53.8666  -27.0702 O   0  0  0  0  0  0  0  0  0  0  0  0
   -1.1258  -52.9591  -17.8617 S   0  0  0  0  0  0  0  0  0  0  0  0
   -0.4004  -51.4287  -17.1872 C   0  0  0  0  0  0  0  0  0  0  0  0
 15 16  1  0  0  0
 16  1  1  0  0  0
  1  2  2  0  0  0
  2  3  1  0  0  0
  3  4  2  0  0  0
  4  5  1  0  0  0
  5  6  2  0  0  0
  5  7  1  0  0  0
  7  8  2  0  0  0
  8  9  1  0  0  0
  9 10  2  0  0  0
 10 17  1  0  0  0
 17 18  1  0  0  0
 10 11  1  0  0  0
 11 12  2  0  0  0
 12 13  1  0  0  0
 13 14  1  0  0  0
  6  1  1  0  0  0
 12  7  1  0  0  0
 13  4  1  0  0  0
M  END
> <minimizedAffinity>
-6.46290

> <CNNscore>
0.8206250668

> <CNNaffinity>
5.5511765480

> <CNN_VS>
4.5554347038

> <CNNaffinity_variance>
0.1646490395

$$$$
[H]c1c(OC([H])([H])[H])c([H])c2c3nnc(SC([H])([H])[H])nc3n(C([H])([H])[H])c2c1[H]


 18 20  0  0  0  0  0  0  0  0999 V2000
   -0.5066  -52.6533  -20.2769 C   0  0  0  0  0  0  0  0  0  0  0  0
    0.3651  -51.5960  -20.1258 C   0  0  0  0  0  0  0  0  0  0  0  0
    1.0353  -51.1081  -21.2492 C   0  0  0  0  0  0  0  0  0  0  0  0
    0.8472  -51.6581  -22.5099 C   0  0  0  0  0  0  0  0  0  0  0  0
   -0.0266  -52.7127  -22.6420 C   0  0  0  0  0  0  0  0  0  0  0  0
   -0.7000  -53.2056  -21.5235 C   0  0  0  0  0  0  0  0  0  0  0  0
   -0.0441  -53.0801  -23.9687 C   0  0  0  0  0  0  0  0  0  0  0  0
   -0.7237  -54.0416  -24.6130 N   0  0  0  0  0  0  0  0  0  0  0  0
   -0.5585  -54.1886  -25.9165 N   0  0  0  0  0  0  0  0  0  0  0  0
    0.2848  -53.3693  -26.5488 C   0  0  0  0  0  0  0  0  0  0  0  0
    0.9807  -52.3977  -25.9377 N   0  0  0  0  0  0  0  0  0  0  0  0
    0.8368  -52.2171  -24.6022 C   0  0  0  0  0  0  0  0  0  0  0  0
    1.3763  -51.3570  -23.7213 N   0  0  0  0  0  0  0  0  0  0  0  0
    2.3493  -50.2998  -24.0192 C   0  0  0  0  0  0  0  0  0  0  0  0
   -1.0549  -52.7834  -17.8744 C   0  0  0  0  0  0  0  0  0  0  0  0
   -1.1995  -53.1808  -19.2041 O   0  0  0  0  0  0  0  0  0  0  0  0
    0.4856  -53.5966  -28.3133 S   0  0  0  0  0  0  0  0  0  0  0  0
   -0.8141  -52.6594  -29.1826 C   0  0  0  0  0  0  0  0  0  0  0  0
 15 16  1  0  0  0
 16  1  1  0  0  0
  1  2  2  0  0  0
  2  3  1  0  0  0
  3  4  2  0  0  0
  4  5  1  0  0  0
  5  6  2  0  0  0
  5  7  1  0  0  0
  7  8  2  0  0  0
  8  9  1  0  0  0
  9 10  2  0  0  0
 10 17  1  0  0  0
 17 18  1  0  0  0
 10 11  1  0  0  0
 11 12  2  0  0  0
 12 13  1  0  0  0
 13 14  1  0  0  0
  6  1  1  0  0  0
 12  7  1  0  0  0
 13  4  1  0  0  0
M  END
> <minimizedAffinity>
-6.66062

> <CNNscore>
0.8035442233

> <CNNaffinity>
5.8177924156

> <CNN_VS>
4.6748533249

> <CNNaffinity_variance>
0.1009439379

$$$$
[H]c1c(OC([H])([H])[H])c([H])c2c3nnc(SC([H])([H])[H])nc3n(C([H])([H])[H])c2c1[H]


 18 20  0  0  0  0  0  0  0  0999 V2000
    0.1115  -51.5880  -20.4070 C   0  0  0  0  0  0  0  0  0  0  0  0
   -0.4738  -52.7721  -20.0122 C   0  0  0  0  0  0  0  0  0  0  0  0
   -0.7971  -53.7217  -20.9833 C   0  0  0  0  0  0  0  0  0  0  0  0
   -0.5454  -53.5051  -22.3313 C   0  0  0  0  0  0  0  0  0  0  0  0
    0.0392  -52.3176  -22.7071 C   0  0  0  0  0  0  0  0  0  0  0  0
    0.3652  -51.3638  -21.7419 C   0  0  0  0  0  0  0  0  0  0  0  0
    0.1864  -52.3364  -24.0757 C   0  0  0  0  0  0  0  0  0  0  0  0
    0.6965  -51.4306  -24.9247 N   0  0  0  0  0  0  0  0  0  0  0  0
    0.7221  -51.6989  -26.2191 N   0  0  0  0  0  0  0  0  0  0  0  0
    0.2356  -52.8695  -26.6374 C   0  0  0  0  0  0  0  0  0  0  0  0
   -0.2820  -53.7984  -25.8183 N   0  0  0  0  0  0  0  0  0  0  0  0
   -0.3247  -53.5585  -24.4850 C   0  0  0  0  0  0  0  0  0  0  0  0
   -0.7673  -54.2659  -23.4312 N   0  0  0  0  0  0  0  0  0  0  0  0
   -1.3731  -55.6019  -23.4705 C   0  0  0  0  0  0  0  0  0  0  0  0
    0.4737  -50.7677  -18.1080 C   0  0  0  0  0  0  0  0  0  0  0  0
    0.4549  -50.6092  -19.4941 O   0  0  0  0  0  0  0  0  0  0  0  0
    0.2847  -53.1999  -28.3963 S   0  0  0  0  0  0  0  0  0  0  0  0
   -1.2905  -52.6665  -29.1430 C   0  0  0  0  0  0  0  0  0  0  0  0
 15 16  1  0  0  0
 16  1  1  0  0  0
  1  2  2  0  0  0
  2  3  1  0  0  0
  3  4  2  0  0  0
  4  5  1  0  0  0
  5  6  2  0  0  0
  5  7  1  0  0  0
  7  8  2  0  0  0
  8  9  1  0  0  0
  9 10  2  0  0  0
 10 17  1  0  0  0
 17 18  1  0  0  0
 10 11  1  0  0  0
 11 12  2  0  0  0
 12 13  1  0  0  0
 13 14  1  0  0  0
  6  1  1  0  0  0
 12  7  1  0  0  0
 13  4  1  0  0  0
M  END
> <minimizedAffinity>
-6.62593

> <CNNscore>
0.7163172960

> <CNNaffinity>
5.7529587746

> <CNN_VS>
4.1209440231

> <CNNaffinity_variance>
0.1261804849

$$$$
[H]c1c(OC([H])([H])[H])c([H])c2c3nnc(SC([H])([H])[H])nc3n(C([H])([H])[H])c2c1[H]


 18 20  0  0  0  0  0  0  0  0999 V2000
   -1.0508  -54.1688  -21.9393 C   0  0  0  0  0  0  0  0  0  0  0  0
   -1.4131  -55.0610  -22.9259 C   0  0  0  0  0  0  0  0  0  0  0  0
   -0.9367  -54.8626  -24.2232 C   0  0  0  0  0  0  0  0  0  0  0  0
   -0.1105  -53.7941  -24.5441 C   0  0  0  0  0  0  0  0  0  0  0  0
    0.2409  -52.9137  -23.5468 C   0  0  0  0  0  0  0  0  0  0  0  0
   -0.2315  -53.1057  -22.2478 C   0  0  0  0  0  0  0  0  0  0  0  0
    1.0546  -51.9523  -24.1026 C   0  0  0  0  0  0  0  0  0  0  0  0
    1.6579  -50.8818  -23.5626 N   0  0  0  0  0  0  0  0  0  0  0  0
    2.4012  -50.1022  -24.3293 N   0  0  0  0  0  0  0  0  0  0  0  0
    2.5250  -50.4105  -25.6223 C   0  0  0  0  0  0  0  0  0  0  0  0
    1.9368  -51.4716  -26.1964 N   0  0  0  0  0  0  0  0  0  0  0  0
    1.1675  -52.2935  -25.4416 C   0  0  0  0  0  0  0  0  0  0  0  0
    0.4636  -53.4069  -25.7097 N   0  0  0  0  0  0  0  0  0  0  0  0
    0.3432  -54.0693  -27.0135 C   0  0  0  0  0  0  0  0  0  0  0  0
   -1.2411  -53.4129  -19.5980 C   0  0  0  0  0  0  0  0  0  0  0  0
   -1.4893  -54.3108  -20.6367 O   0  0  0  0  0  0  0  0  0  0  0  0
    3.5376  -49.3331  -26.6320 S   0  0  0  0  0  0  0  0  0  0  0  0
    3.7571  -47.7441  -25.7659 C   0  0  0  0  0  0  0  0  0  0  0  0
 15 16  1  0  0  0
 16  1  1  0  0  0
  1  2  2  0  0  0
  2  3  1  0  0  0
  3  4  2  0  0  0
  4  5  1  0  0  0
  5  6  2  0  0  0
  5  7  1  0  0  0
  7  8  2  0  0  0
  8  9  1  0  0  0
  9 10  2  0  0  0
 10 17  1  0  0  0
 17 18  1  0  0  0
 10 11  1  0  0  0
 11 12  2  0  0  0
 12 13  1  0  0  0
 13 14  1  0  0  0
  6  1  1  0  0  0
 12  7  1  0  0  0
 13  4  1  0  0  0
M  END
> <minimizedAffinity>
-6.00883

> <CNNscore>
0.5940107703

> <CNNaffinity>
5.4109153748

> <CNN_VS>
3.2141420841

> <CNNaffinity_variance>
0.1979083121

$$$$
[H]c1c(OC([H])([H])[H])c([H])c2c3nnc(SC([H])([H])[H])nc3n(C([H])([H])[H])c2c1[H]


 18 20  0  0  0  0  0  0  0  0999 V2000
   -0.9768  -54.0275  -21.3346 C   0  0  0  0  0  0  0  0  0  0  0  0
   -1.4102  -53.7478  -20.0561 C   0  0  0  0  0  0  0  0  0  0  0  0
   -0.6930  -52.8304  -19.2859 C   0  0  0  0  0  0  0  0  0  0  0  0
    0.4413  -52.1947  -19.7726 C   0  0  0  0  0  0  0  0  0  0  0  0
    0.8593  -52.4860  -21.0507 C   0  0  0  0  0  0  0  0  0  0  0  0
    0.1473  -53.4019  -21.8263 C   0  0  0  0  0  0  0  0  0  0  0  0
    1.9892  -51.7411  -21.3031 C   0  0  0  0  0  0  0  0  0  0  0  0
    2.7729  -51.6602  -22.3898 N   0  0  0  0  0  0  0  0  0  0  0  0
    3.8185  -50.8512  -22.3752 N   0  0  0  0  0  0  0  0  0  0  0  0
    4.0585  -50.1392  -21.2718 C   0  0  0  0  0  0  0  0  0  0  0  0
    3.2975  -50.1945  -20.1674 N   0  0  0  0  0  0  0  0  0  0  0  0
    2.2171  -51.0125  -20.1458 C   0  0  0  0  0  0  0  0  0  0  0  0
    1.2819  -51.2860  -19.2197 N   0  0  0  0  0  0  0  0  0  0  0  0
    1.1939  -50.7098  -17.8731 C   0  0  0  0  0  0  0  0  0  0  0  0
   -1.2897  -55.2470  -23.4569 C   0  0  0  0  0  0  0  0  0  0  0  0
   -1.6433  -54.9256  -22.1460 O   0  0  0  0  0  0  0  0  0  0  0  0
    5.4830  -49.0547  -21.2857 S   0  0  0  0  0  0  0  0  0  0  0  0
    5.5380  -48.1702  -22.8787 C   0  0  0  0  0  0  0  0  0  0  0  0
 15 16  1  0  0  0
 16  1  1  0  0  0
  1  2  2  0  0  0
  2  3  1  0  0  0
  3  4  2  0  0  0
  4  5  1  0  0  0
  5  6  2  0  0  0
  5  7  1  0  0  0
  7  8  2  0  0  0
  8  9  1  0  0  0
  9 10  2  0  0  0
 10 17  1  0  0  0
 17 18  1  0  0  0
 10 11  1  0  0  0
 11 12  2  0  0  0
 12 13  1  0  0  0
 13 14  1  0  0  0
  6  1  1  0  0  0
 12  7  1  0  0  0
 13  4  1  0  0  0
M  END
> <minimizedAffinity>
-5.49519

> <CNNscore>
0.5830728412

> <CNNaffinity>
5.2928400040

> <CNN_VS>
3.0861113071

> <CNNaffinity_variance>
0.2179880142

$$$$
[H]c1c(OC([H])([H])[H])c([H])c2c3nnc(SC([H])([H])[H])nc3n(C([H])([H])[H])c2c1[H]


 18 20  0  0  0  0  0  0  0  0999 V2000
    0.2003  -51.5407  -19.7989 C   0  0  0  0  0  0  0  0  0  0  0  0
    1.0924  -50.5047  -19.9764 C   0  0  0  0  0  0  0  0  0  0  0  0
    1.6005  -50.2631  -21.2542 C   0  0  0  0  0  0  0  0  0  0  0  0
    1.2318  -51.0363  -22.3467 C   0  0  0  0  0  0  0  0  0  0  0  0
    0.3404  -52.0660  -22.1510 C   0  0  0  0  0  0  0  0  0  0  0  0
   -0.1716  -52.3133  -20.8766 C   0  0  0  0  0  0  0  0  0  0  0  0
    0.1326  -52.6785  -23.3663 C   0  0  0  0  0  0  0  0  0  0  0  0
   -0.6383  -53.7211  -23.7130 N   0  0  0  0  0  0  0  0  0  0  0  0
   -0.6603  -54.1192  -24.9736 N   0  0  0  0  0  0  0  0  0  0  0  0
    0.0911  -53.4648  -25.8621 C   0  0  0  0  0  0  0  0  0  0  0  0
    0.8736  -52.4193  -25.5520 N   0  0  0  0  0  0  0  0  0  0  0  0
    0.9214  -51.9828  -24.2697 C   0  0  0  0  0  0  0  0  0  0  0  0
    1.5864  -50.9898  -23.6544 N   0  0  0  0  0  0  0  0  0  0  0  0
    2.5152  -50.0429  -24.2820 C   0  0  0  0  0  0  0  0  0  0  0  0
   -0.1381  -51.0836  -17.3977 C   0  0  0  0  0  0  0  0  0  0  0  0
   -0.3376  -51.8300  -18.5595 O   0  0  0  0  0  0  0  0  0  0  0  0
    0.0385  -54.0308  -27.5598 S   0  0  0  0  0  0  0  0  0  0  0  0
    1.6053  -53.5883  -28.3801 C   0  0  0  0  0  0  0  0  0  0  0  0
 15 16  1  0  0  0
 16  1  1  0  0  0
  1  2  2  0  0  0
  2  3  1  0  0  0
  3  4  2  0  0  0
  4  5  1  0  0  0
  5  6  2  0  0  0
  5  7  1  0  0  0
  7  8  2  0  0  0
  8  9  1  0  0  0
  9 10  2  0  0  0
 10 17  1  0  0  0
 17 18  1  0  0  0
 10 11  1  0  0  0
 11 12  2  0  0  0
 12 13  1  0  0  0
 13 14  1  0  0  0
  6  1  1  0  0  0
 12  7  1  0  0  0
 13  4  1  0  0  0
M  END
> <minimizedAffinity>
-5.96280

> <CNNscore>
0.5517193079

> <CNNaffinity>
5.4235639572

> <CNN_VS>
2.9922850132

> <CNNaffinity_variance>
0.1968740076

$$$$
[H]c1c(OC([H])([H])[H])c([H])c2c3nnc(SC([H])([H])[H])nc3n(C([H])([H])[H])c2c1[H]


 18 20  0  0  0  0  0  0  0  0999 V2000
    0.6491  -52.2745  -20.3256 C   0  0  0  0  0  0  0  0  0  0  0  0
    1.8999  -51.6954  -20.2991 C   0  0  0  0  0  0  0  0  0  0  0  0
    2.6058  -51.5590  -21.4959 C   0  0  0  0  0  0  0  0  0  0  0  0
    2.0826  -51.9900  -22.7075 C   0  0  0  0  0  0  0  0  0  0  0  0
    0.8330  -52.5656  -22.7150 C   0  0  0  0  0  0  0  0  0  0  0  0
    0.1215  -52.7051  -21.5226 C   0  0  0  0  0  0  0  0  0  0  0  0
    0.5352  -52.9064  -24.0152 C   0  0  0  0  0  0  0  0  0  0  0  0
   -0.5481  -53.4885  -24.5529 N   0  0  0  0  0  0  0  0  0  0  0  0
   -0.5851  -53.7091  -25.8559 N   0  0  0  0  0  0  0  0  0  0  0  0
    0.4647  -53.3423  -26.5947 C   0  0  0  0  0  0  0  0  0  0  0  0
    1.5639  -52.7586  -26.0920 N   0  0  0  0  0  0  0  0  0  0  0  0
    1.6373  -52.5166  -24.7605 C   0  0  0  0  0  0  0  0  0  0  0  0
    2.5735  -51.9624  -23.9709 N   0  0  0  0  0  0  0  0  0  0  0  0
    3.8731  -51.4328  -24.3995 C   0  0  0  0  0  0  0  0  0  0  0  0
   -0.0489  -51.6080  -18.0544 C   0  0  0  0  0  0  0  0  0  0  0  0
   -0.0990  -52.4374  -19.1753 O   0  0  0  0  0  0  0  0  0  0  0  0
    0.3821  -53.6566  -28.3553 S   0  0  0  0  0  0  0  0  0  0  0  0
   -0.9315  -52.6213  -29.0804 C   0  0  0  0  0  0  0  0  0  0  0  0
 15 16  1  0  0  0
 16  1  1  0  0  0
  1  2  2  0  0  0
  2  3  1  0  0  0
  3  4  2  0  0  0
  4  5  1  0  0  0
  5  6  2  0  0  0
  5  7  1  0  0  0
  7  8  2  0  0  0
  8  9  1  0  0  0
  9 10  2  0  0  0
 10 17  1  0  0  0
 17 18  1  0  0  0
 10 11  1  0  0  0
 11 12  2  0  0  0
 12 13  1  0  0  0
 13 14  1  0  0  0
  6  1  1  0  0  0
 12  7  1  0  0  0
 13  4  1  0  0  0
M  END
> <minimizedAffinity>
-6.09804

> <CNNscore>
0.5295075774

> <CNNaffinity>
5.5815491676

> <CNN_VS>
2.9554724693

> <CNNaffinity_variance>
0.1836652905

$$$$
[H]OC1(c2c([H])c([H])c(C([H])([H])C([H])([H])C([H])([H])[H])c([H])c2[H])C([H])([H])C([H])([H])N(C([H])(c2c([H])c([H])c([H])c([H])c2[H])c2c([H])c([H])c([H])c([H])c2[H])C([H])([H])C1([H])[H]


 30 33  0  0  0  0  0  0  0  0999 V2000
    0.1180  -52.9339  -22.9525 C   0  0  0  0  0  0  0  0  0  0  0  0
    1.3334  -52.3894  -22.4816 O   0  0  0  0  0  0  0  0  0  0  0  0
   -0.9695  -52.0039  -22.5724 C   0  0  0  0  0  0  0  0  0  0  0  0
   -0.8744  -51.7495  -21.0927 C   0  0  0  0  0  0  0  0  0  0  0  0
   -0.2802  -52.8027  -20.3569 N   0  0  0  0  0  0  0  0  0  0  0  0
   -0.3080  -54.1142  -20.7985 C   0  0  0  0  0  0  0  0  0  0  0  0
   -0.0812  -54.2606  -22.2850 C   0  0  0  0  0  0  0  0  0  0  0  0
    1.7622  -51.8608  -23.2017 H   0  0  0  0  0  0  0  0  0  0  0  0
    0.3529  -53.4051  -27.2073 C   0  0  0  0  0  0  0  0  0  0  0  0
    0.6586  -52.1924  -26.6198 C   0  0  0  0  0  0  0  0  0  0  0  0
    0.6086  -52.0193  -25.2380 C   0  0  0  0  0  0  0  0  0  0  0  0
    0.2470  -53.0665  -24.4098 C   0  0  0  0  0  0  0  0  0  0  0  0
   -0.0485  -54.2642  -25.0213 C   0  0  0  0  0  0  0  0  0  0  0  0
   -0.0040  -54.4519  -26.3822 C   0  0  0  0  0  0  0  0  0  0  0  0
    0.3100  -53.4993  -28.6812 C   0  0  0  0  0  0  0  0  0  0  0  0
   -2.0431  -52.7491  -28.7380 C   0  0  0  0  0  0  0  0  0  0  0  0
   -0.6609  -52.4921  -29.2745 C   0  0  0  0  0  0  0  0  0  0  0  0
    0.5210  -52.3953  -19.2719 C   0  0  0  0  0  0  0  0  0  0  0  0
    1.4987  -51.2857  -19.6223 C   0  0  0  0  0  0  0  0  0  0  0  0
    1.0207  -50.0180  -19.9623 C   0  0  0  0  0  0  0  0  0  0  0  0
    1.8702  -49.0108  -20.3279 C   0  0  0  0  0  0  0  0  0  0  0  0
    3.2259  -49.2835  -20.3519 C   0  0  0  0  0  0  0  0  0  0  0  0
    3.6936  -50.5199  -20.0161 C   0  0  0  0  0  0  0  0  0  0  0  0
    2.8119  -51.5476  -19.6418 C   0  0  0  0  0  0  0  0  0  0  0  0
   -0.1527  -51.9031  -18.0716 C   0  0  0  0  0  0  0  0  0  0  0  0
   -1.2909  -52.5399  -17.5847 C   0  0  0  0  0  0  0  0  0  0  0  0
   -1.9069  -52.1527  -16.4286 C   0  0  0  0  0  0  0  0  0  0  0  0
   -1.4032  -51.0894  -15.6848 C   0  0  0  0  0  0  0  0  0  0  0  0
   -0.2902  -50.4475  -16.1490 C   0  0  0  0  0  0  0  0  0  0  0  0
    0.3134  -50.8596  -17.3276 C   0  0  0  0  0  0  0  0  0  0  0  0
 16 17  1  0  0  0
 17 15  1  0  0  0
 15  9  1  0  0  0
  9 10  2  0  0  0
 10 11  1  0  0  0
 11 12  2  0  0  0
 12  1  1  0  0  0
  1  2  1  0  0  0
  1  3  1  0  0  0
  3  4  1  0  0  0
  4  5  1  0  0  0
  5 18  1  0  0  0
 18 19  1  0  0  0
 19 20  2  0  0  0
 20 21  1  0  0  0
 21 22  2  0  0  0
 22 23  1  0  0  0
 23 24  2  0  0  0
 18 25  1  0  0  0
 25 26  2  0  0  0
 26 27  1  0  0  0
 27 28  2  0  0  0
 28 29  1  0  0  0
 29 30  2  0  0  0
  5  6  1  0  0  0
  6  7  1  0  0  0
 12 13  1  0  0  0
 13 14  2  0  0  0
 14  9  1  0  0  0
  7  1  1  0  0  0
 24 19  1  0  0  0
 30 25  1  0  0  0
  2  8  1  0  0  0
M  END
> <minimizedAffinity>
-8.38356

> <CNNscore>
0.2015907019

> <CNNaffinity>
6.1720848083

> <CNN_VS>
1.2442349195

> <CNNaffinity_variance>
0.1616470665

$$$$
[H]OC1(c2c([H])c([H])c(C([H])([H])C([H])([H])C([H])([H])[H])c([H])c2[H])C([H])([H])C([H])([H])N(C([H])(c2c([H])c([H])c([H])c([H])c2[H])c2c([H])c([H])c([H])c([H])c2[H])C([H])([H])C1([H])[H]


 30 33  0  0  0  0  0  0  0  0999 V2000
    2.6304  -50.5450  -25.1703 C   0  0  0  0  0  0  0  0  0  0  0  0
    1.2275  -50.5098  -25.0090 O   0  0  0  0  0  0  0  0  0  0  0  0
    2.9134  -50.9288  -26.5719 C   0  0  0  0  0  0  0  0  0  0  0  0
    2.1695  -52.2021  -26.8697 C   0  0  0  0  0  0  0  0  0  0  0  0
    1.9264  -53.0142  -25.7362 N   0  0  0  0  0  0  0  0  0  0  0  0
    2.7376  -52.9729  -24.6153 C   0  0  0  0  0  0  0  0  0  0  0  0
    3.1757  -51.5787  -24.2325 C   0  0  0  0  0  0  0  0  0  0  0  0
    0.8994  -49.5857  -25.1511 H   0  0  0  0  0  0  0  0  0  0  0  0
    3.9899  -46.5589  -24.3679 C   0  0  0  0  0  0  0  0  0  0  0  0
    3.6888  -47.4179  -23.3283 C   0  0  0  0  0  0  0  0  0  0  0  0
    3.2636  -48.7242  -23.5627 C   0  0  0  0  0  0  0  0  0  0  0  0
    3.1293  -49.1998  -24.8546 C   0  0  0  0  0  0  0  0  0  0  0  0
    3.4398  -48.3243  -25.8709 C   0  0  0  0  0  0  0  0  0  0  0  0
    3.8605  -47.0332  -25.6571 C   0  0  0  0  0  0  0  0  0  0  0  0
    4.3235  -45.1519  -24.0641 C   0  0  0  0  0  0  0  0  0  0  0  0
    6.2914  -44.9840  -22.5802 C   0  0  0  0  0  0  0  0  0  0  0  0
    4.7874  -44.9887  -22.6264 C   0  0  0  0  0  0  0  0  0  0  0  0
    0.6923  -53.6940  -25.7420 C   0  0  0  0  0  0  0  0  0  0  0  0
    0.0565  -53.8095  -24.3664 C   0  0  0  0  0  0  0  0  0  0  0  0
   -0.6602  -54.9588  -24.0248 C   0  0  0  0  0  0  0  0  0  0  0  0
   -1.2838  -55.0756  -22.8135 C   0  0  0  0  0  0  0  0  0  0  0  0
   -1.1847  -54.0170  -21.9290 C   0  0  0  0  0  0  0  0  0  0  0  0
   -0.4817  -52.8962  -22.2604 C   0  0  0  0  0  0  0  0  0  0  0  0
    0.1554  -52.7867  -23.5077 C   0  0  0  0  0  0  0  0  0  0  0  0
   -0.3791  -53.1583  -26.5798 C   0  0  0  0  0  0  0  0  0  0  0  0
   -0.4218  -53.4381  -27.9430 C   0  0  0  0  0  0  0  0  0  0  0  0
   -1.4435  -53.0143  -28.7444 C   0  0  0  0  0  0  0  0  0  0  0  0
   -2.4968  -52.2768  -28.2111 C   0  0  0  0  0  0  0  0  0  0  0  0
   -2.4704  -51.9867  -26.8765 C   0  0  0  0  0  0  0  0  0  0  0  0
   -1.4190  -52.4270  -26.0864 C   0  0  0  0  0  0  0  0  0  0  0  0
 16 17  1  0  0  0
 17 15  1  0  0  0
 15  9  1  0  0  0
  9 10  2  0  0  0
 10 11  1  0  0  0
 11 12  2  0  0  0
 12  1  1  0  0  0
  1  2  1  0  0  0
  1  3  1  0  0  0
  3  4  1  0  0  0
  4  5  1  0  0  0
  5 18  1  0  0  0
 18 19  1  0  0  0
 19 20  2  0  0  0
 20 21  1  0  0  0
 21 22  2  0  0  0
 22 23  1  0  0  0
 23 24  2  0  0  0
 18 25  1  0  0  0
 25 26  2  0  0  0
 26 27  1  0  0  0
 27 28  2  0  0  0
 28 29  1  0  0  0
 29 30  2  0  0  0
  5  6  1  0  0  0
  6  7  1  0  0  0
 12 13  1  0  0  0
 13 14  2  0  0  0
 14  9  1  0  0  0
  7  1  1  0  0  0
 24 19  1  0  0  0
 30 25  1  0  0  0
  2  8  1  0  0  0
M  END
> <minimizedAffinity>
-7.73801

> <CNNscore>
0.1798801124

> <CNNaffinity>
5.9881911278

> <CNN_VS>
1.0771565437

> <CNNaffinity_variance>
0.2289873064

$$$$
[H]OC1(c2c([H])c([H])c(C([H])([H])C([H])([H])C([H])([H])[H])c([H])c2[H])C([H])([H])C([H])([H])N(C([H])(c2c([H])c([H])c([H])c([H])c2[H])c2c([H])c([H])c([H])c([H])c2[H])C([H])([H])C1([H])[H]


 30 33  0  0  0  0  0  0  0  0999 V2000
    2.9428  -50.1160  -25.3746 C   0  0  0  0  0  0  0  0  0  0  0  0
    2.0021  -50.7705  -26.2004 O   0  0  0  0  0  0  0  0  0  0  0  0
    4.0177  -51.0845  -25.0607 C   0  0  0  0  0  0  0  0  0  0  0  0
    3.3813  -52.3279  -24.5019 C   0  0  0  0  0  0  0  0  0  0  0  0
    2.1389  -52.1091  -23.8598 N   0  0  0  0  0  0  0  0  0  0  0  0
    1.8094  -50.8898  -23.2934 C   0  0  0  0  0  0  0  0  0  0  0  0
    2.2409  -49.6996  -24.1178 C   0  0  0  0  0  0  0  0  0  0  0  0
    2.2119  -50.5894  -27.1518 H   0  0  0  0  0  0  0  0  0  0  0  0
    4.3419  -46.8120  -27.7211 C   0  0  0  0  0  0  0  0  0  0  0  0
    3.7593  -46.5964  -26.4869 C   0  0  0  0  0  0  0  0  0  0  0  0
    3.3141  -47.6545  -25.6968 C   0  0  0  0  0  0  0  0  0  0  0  0
    3.4439  -48.9612  -26.1318 C   0  0  0  0  0  0  0  0  0  0  0  0
    4.0314  -49.1472  -27.3630 C   0  0  0  0  0  0  0  0  0  0  0  0
    4.4758  -48.1151  -28.1546 C   0  0  0  0  0  0  0  0  0  0  0  0
    4.6890  -45.6498  -28.5650 C   0  0  0  0  0  0  0  0  0  0  0  0
    2.6003  -45.4878  -29.8743 C   0  0  0  0  0  0  0  0  0  0  0  0
    4.0770  -45.7668  -29.9510 C   0  0  0  0  0  0  0  0  0  0  0  0
    1.1893  -53.1358  -24.0308 C   0  0  0  0  0  0  0  0  0  0  0  0
    0.2665  -53.3141  -22.8364 C   0  0  0  0  0  0  0  0  0  0  0  0
    0.4097  -52.4913  -21.7167 C   0  0  0  0  0  0  0  0  0  0  0  0
   -0.3726  -52.6554  -20.6074 C   0  0  0  0  0  0  0  0  0  0  0  0
   -1.3168  -53.6659  -20.6243 C   0  0  0  0  0  0  0  0  0  0  0  0
   -1.4599  -54.4671  -21.7187 C   0  0  0  0  0  0  0  0  0  0  0  0
   -0.6508  -54.2896  -22.8534 C   0  0  0  0  0  0  0  0  0  0  0  0
    0.2762  -53.0397  -25.1683 C   0  0  0  0  0  0  0  0  0  0  0  0
   -0.7808  -52.1337  -25.1557 C   0  0  0  0  0  0  0  0  0  0  0  0
   -1.6122  -51.9657  -26.2264 C   0  0  0  0  0  0  0  0  0  0  0  0
   -1.4222  -52.7085  -27.3883 C   0  0  0  0  0  0  0  0  0  0  0  0
   -0.3939  -53.6073  -27.4183 C   0  0  0  0  0  0  0  0  0  0  0  0
    0.4332  -53.7599  -26.3156 C   0  0  0  0  0  0  0  0  0  0  0  0
 16 17  1  0  0  0
 17 15  1  0  0  0
 15  9  1  0  0  0
  9 10  2  0  0  0
 10 11  1  0  0  0
 11 12  2  0  0  0
 12  1  1  0  0  0
  1  2  1  0  0  0
  1  3  1  0  0  0
  3  4  1  0  0  0
  4  5  1  0  0  0
  5 18  1  0  0  0
 18 19  1  0  0  0
 19 20  2  0  0  0
 20 21  1  0  0  0
 21 22  2  0  0  0
 22 23  1  0  0  0
 23 24  2  0  0  0
 18 25  1  0  0  0
 25 26  2  0  0  0
 26 27  1  0  0  0
 27 28  2  0  0  0
 28 29  1  0  0  0
 29 30  2  0  0  0
  5  6  1  0  0  0
  6  7  1  0  0  0
 12 13  1  0  0  0
 13 14  2  0  0  0
 14  9  1  0  0  0
  7  1  1  0  0  0
 24 19  1  0  0  0
 30 25  1  0  0  0
  2  8  1  0  0  0
M  END
> <minimizedAffinity>
-7.78184

> <CNNscore>
0.1626484692

> <CNNaffinity>
5.7825446129

> <CNN_VS>
0.9405220151

> <CNNaffinity_variance>
0.2863525748

$$$$
[H]OC1(c2c([H])c([H])c(C([H])([H])C([H])([H])C([H])([H])[H])c([H])c2[H])C([H])([H])C([H])([H])N(C([H])(c2c([H])c([H])c([H])c([H])c2[H])c2c([H])c([H])c([H])c([H])c2[H])C([H])([H])C1([H])[H]


 30 33  0  0  0  0  0  0  0  0999 V2000
    1.2565  -51.3800  -21.6890 C   0  0  0  0  0  0  0  0  0  0  0  0
    2.1327  -52.4568  -21.9499 O   0  0  0  0  0  0  0  0  0  0  0  0
   -0.1187  -51.9243  -21.6217 C   0  0  0  0  0  0  0  0  0  0  0  0
   -0.3746  -52.7112  -22.8781 C   0  0  0  0  0  0  0  0  0  0  0  0
    0.3808  -52.2855  -23.9970 N   0  0  0  0  0  0  0  0  0  0  0  0
    0.8485  -50.9882  -24.1169 C   0  0  0  0  0  0  0  0  0  0  0  0
    1.3713  -50.4080  -22.8237 C   0  0  0  0  0  0  0  0  0  0  0  0
    2.4935  -52.8064  -21.0958 H   0  0  0  0  0  0  0  0  0  0  0  0
    2.3320  -49.6539  -17.9149 C   0  0  0  0  0  0  0  0  0  0  0  0
    3.1167  -50.6395  -18.4824 C   0  0  0  0  0  0  0  0  0  0  0  0
    2.7992  -51.2026  -19.7169 C   0  0  0  0  0  0  0  0  0  0  0  0
    1.6786  -50.7867  -20.4132 C   0  0  0  0  0  0  0  0  0  0  0  0
    0.9172  -49.8009  -19.8266 C   0  0  0  0  0  0  0  0  0  0  0  0
    1.2162  -49.2350  -18.6102 C   0  0  0  0  0  0  0  0  0  0  0  0
    2.6509  -49.1760  -16.5536 C   0  0  0  0  0  0  0  0  0  0  0  0
    3.7810  -47.4455  -17.9068 C   0  0  0  0  0  0  0  0  0  0  0  0
    3.1540  -47.7423  -16.5715 C   0  0  0  0  0  0  0  0  0  0  0  0
    0.8049  -53.3165  -24.8585 C   0  0  0  0  0  0  0  0  0  0  0  0
    0.0422  -54.6175  -24.6697 C   0  0  0  0  0  0  0  0  0  0  0  0
    0.0024  -55.5576  -25.7022 C   0  0  0  0  0  0  0  0  0  0  0  0
   -0.7128  -56.7168  -25.5828 C   0  0  0  0  0  0  0  0  0  0  0  0
   -1.4007  -56.9350  -24.4029 C   0  0  0  0  0  0  0  0  0  0  0  0
   -1.3590  -56.0195  -23.3929 C   0  0  0  0  0  0  0  0  0  0  0  0
   -0.6209  -54.8316  -23.5261 C   0  0  0  0  0  0  0  0  0  0  0  0
    0.7361  -53.0754  -26.2986 C   0  0  0  0  0  0  0  0  0  0  0  0
    1.8970  -53.0159  -27.0648 C   0  0  0  0  0  0  0  0  0  0  0  0
    1.8701  -52.8622  -28.4218 C   0  0  0  0  0  0  0  0  0  0  0  0
    0.6556  -52.7614  -29.0947 C   0  0  0  0  0  0  0  0  0  0  0  0
   -0.4950  -52.8116  -28.3599 C   0  0  0  0  0  0  0  0  0  0  0  0
   -0.4384  -52.9651  -26.9827 C   0  0  0  0  0  0  0  0  0  0  0  0
 16 17  1  0  0  0
 17 15  1  0  0  0
 15  9  1  0  0  0
  9 10  2  0  0  0
 10 11  1  0  0  0
 11 12  2  0  0  0
 12  1  1  0  0  0
  1  2  1  0  0  0
  1  3  1  0  0  0
  3  4  1  0  0  0
  4  5  1  0  0  0
  5 18  1  0  0  0
 18 19  1  0  0  0
 19 20  2  0  0  0
 20 21  1  0  0  0
 21 22  2  0  0  0
 22 23  1  0  0  0
 23 24  2  0  0  0
 18 25  1  0  0  0
 25 26  2  0  0  0
 26 27  1  0  0  0
 27 28  2  0  0  0
 28 29  1  0  0  0
 29 30  2  0  0  0
  5  6  1  0  0  0
  6  7  1  0  0  0
 12 13  1  0  0  0
 13 14  2  0  0  0
 14  9  1  0  0  0
  7  1  1  0  0  0
 24 19  1  0  0  0
 30 25  1  0  0  0
  2  8  1  0  0  0
M  END
> <minimizedAffinity>
-4.05207

> <CNNscore>
0.1376987696

> <CNNaffinity>
5.8335986137

> <CNN_VS>
0.8032793403

> <CNNaffinity_variance>
0.3395552039

$$$$
[H]OC1(c2c([H])c([H])c(C([H])([H])C([H])([H])C([H])([H])[H])c([H])c2[H])C([H])([H])C([H])([H])N(C([H])(c2c([H])c([H])c([H])c([H])c2[H])c2c([H])c([H])c([H])c([H])c2[H])C([H])([H])C1([H])[H]


 30 33  0  0  0  0  0  0  0  0999 V2000
    3.2740  -50.6031  -24.8700 C   0  0  0  0  0  0  0  0  0  0  0  0
    1.9064  -50.4612  -25.1937 O   0  0  0  0  0  0  0  0  0  0  0  0
    3.8400  -51.6480  -25.7530 C   0  0  0  0  0  0  0  0  0  0  0  0
    2.9872  -52.8811  -25.6283 C   0  0  0  0  0  0  0  0  0  0  0  0
    2.3183  -53.0045  -24.3869 N   0  0  0  0  0  0  0  0  0  0  0  0
    2.8039  -52.4205  -23.2296 C   0  0  0  0  0  0  0  0  0  0  0  0
    3.3656  -51.0335  -23.4376 C   0  0  0  0  0  0  0  0  0  0  0  0
    1.7946  -49.7283  -25.8513 H   0  0  0  0  0  0  0  0  0  0  0  0
    4.9632  -46.7104  -25.4811 C   0  0  0  0  0  0  0  0  0  0  0  0
    5.6623  -47.6741  -24.7799 C   0  0  0  0  0  0  0  0  0  0  0  0
    5.1434  -48.9526  -24.5844 C   0  0  0  0  0  0  0  0  0  0  0  0
    3.9023  -49.2937  -25.0909 C   0  0  0  0  0  0  0  0  0  0  0  0
    3.2295  -48.3159  -25.7886 C   0  0  0  0  0  0  0  0  0  0  0  0
    3.7268  -47.0505  -25.9906 C   0  0  0  0  0  0  0  0  0  0  0  0
    5.5092  -45.3395  -25.5580 C   0  0  0  0  0  0  0  0  0  0  0  0
    6.6300  -46.1622  -27.6001 C   0  0  0  0  0  0  0  0  0  0  0  0
    5.9281  -44.9868  -26.9754 C   0  0  0  0  0  0  0  0  0  0  0  0
    1.0286  -53.5674  -24.4567 C   0  0  0  0  0  0  0  0  0  0  0  0
    0.1884  -53.3154  -23.2155 C   0  0  0  0  0  0  0  0  0  0  0  0
    0.1390  -52.0365  -22.6559 C   0  0  0  0  0  0  0  0  0  0  0  0
   -0.5692  -51.7858  -21.5134 C   0  0  0  0  0  0  0  0  0  0  0  0
   -1.2405  -52.8409  -20.9227 C   0  0  0  0  0  0  0  0  0  0  0  0
   -1.1960  -54.0890  -21.4708 C   0  0  0  0  0  0  0  0  0  0  0  0
   -0.4653  -54.3355  -22.6451 C   0  0  0  0  0  0  0  0  0  0  0  0
    0.1609  -53.1535  -25.5578 C   0  0  0  0  0  0  0  0  0  0  0  0
    0.2796  -53.7405  -26.8146 C   0  0  0  0  0  0  0  0  0  0  0  0
   -0.5581  -53.4306  -27.8480 C   0  0  0  0  0  0  0  0  0  0  0  0
   -1.5795  -52.5013  -27.6717 C   0  0  0  0  0  0  0  0  0  0  0  0
   -1.7088  -51.9096  -26.4472 C   0  0  0  0  0  0  0  0  0  0  0  0
   -0.8423  -52.2406  -25.4162 C   0  0  0  0  0  0  0  0  0  0  0  0
 16 17  1  0  0  0
 17 15  1  0  0  0
 15  9  1  0  0  0
  9 10  2  0  0  0
 10 11  1  0  0  0
 11 12  2  0  0  0
 12  1  1  0  0  0
  1  2  1  0  0  0
  1  3  1  0  0  0
  3  4  1  0  0  0
  4  5  1  0  0  0
  5 18  1  0  0  0
 18 19  1  0  0  0
 19 20  2  0  0  0
 20 21  1  0  0  0
 21 22  2  0  0  0
 22 23  1  0  0  0
 23 24  2  0  0  0
 18 25  1  0  0  0
 25 26  2  0  0  0
 26 27  1  0  0  0
 27 28  2  0  0  0
 28 29  1  0  0  0
 29 30  2  0  0  0
  5  6  1  0  0  0
  6  7  1  0  0  0
 12 13  1  0  0  0
 13 14  2  0  0  0
 14  9  1  0  0  0
  7  1  1  0  0  0
 24 19  1  0  0  0
 30 25  1  0  0  0
  2  8  1  0  0  0
M  END
> <minimizedAffinity>
-7.00507

> <CNNscore>
0.1146084666

> <CNNaffinity>
5.7370829582

> <CNN_VS>
0.6575182676

> <CNNaffinity_variance>
0.3714836240

$$$$
[H]OC1(c2c([H])c([H])c(C([H])([H])C([H])([H])C([H])([H])[H])c([H])c2[H])C([H])([H])C([H])([H])N(C([H])(c2c([H])c([H])c([H])c([H])c2[H])c2c([H])c([H])c([H])c([H])c2[H])C([H])([H])C1([H])[H]


 30 33  0  0  0  0  0  0  0  0999 V2000
    3.5311  -49.6033  -25.1963 C   0  0  0  0  0  0  0  0  0  0  0  0
    2.3258  -49.5971  -25.9328 O   0  0  0  0  0  0  0  0  0  0  0  0
    3.9752  -51.0100  -25.0707 C   0  0  0  0  0  0  0  0  0  0  0  0
    2.8363  -51.8136  -24.5047 C   0  0  0  0  0  0  0  0  0  0  0  0
    1.9390  -51.0686  -23.7025 N   0  0  0  0  0  0  0  0  0  0  0  0
    2.3299  -49.9207  -23.0350 C   0  0  0  0  0  0  0  0  0  0  0  0
    3.2456  -49.0299  -23.8416 C   0  0  0  0  0  0  0  0  0  0  0  0
    2.5229  -49.4439  -26.8918 H   0  0  0  0  0  0  0  0  0  0  0  0
    6.2145  -47.1584  -27.4771 C   0  0  0  0  0  0  0  0  0  0  0  0
    6.3477  -47.2511  -26.1049 C   0  0  0  0  0  0  0  0  0  0  0  0
    5.5005  -48.0539  -25.3435 C   0  0  0  0  0  0  0  0  0  0  0  0
    4.4933  -48.7854  -25.9468 C   0  0  0  0  0  0  0  0  0  0  0  0
    4.3859  -48.6775  -27.3152 C   0  0  0  0  0  0  0  0  0  0  0  0
    5.2130  -47.8907  -28.0808 C   0  0  0  0  0  0  0  0  0  0  0  0
    7.0644  -46.2041  -28.2190 C   0  0  0  0  0  0  0  0  0  0  0  0
    7.0232  -45.9874  -30.6795 C   0  0  0  0  0  0  0  0  0  0  0  0
    6.3242  -45.6049  -29.4030 C   0  0  0  0  0  0  0  0  0  0  0  0
    0.5863  -51.4482  -23.8091 C   0  0  0  0  0  0  0  0  0  0  0  0
    0.2574  -52.1639  -25.1089 C   0  0  0  0  0  0  0  0  0  0  0  0
   -0.7588  -51.6769  -25.9343 C   0  0  0  0  0  0  0  0  0  0  0  0
   -1.1115  -52.3229  -27.0867 C   0  0  0  0  0  0  0  0  0  0  0  0
   -0.4293  -53.4802  -27.4154 C   0  0  0  0  0  0  0  0  0  0  0  0
    0.5658  -53.9541  -26.6121 C   0  0  0  0  0  0  0  0  0  0  0  0
    0.9202  -53.2823  -25.4302 C   0  0  0  0  0  0  0  0  0  0  0  0
    0.0396  -52.3267  -22.7767 C   0  0  0  0  0  0  0  0  0  0  0  0
   -0.1642  -53.6802  -23.0312 C   0  0  0  0  0  0  0  0  0  0  0  0
   -0.6070  -54.5457  -22.0717 C   0  0  0  0  0  0  0  0  0  0  0  0
   -0.8705  -54.0922  -20.7822 C   0  0  0  0  0  0  0  0  0  0  0  0
   -0.6825  -52.7659  -20.5140 C   0  0  0  0  0  0  0  0  0  0  0  0
   -0.2350  -51.9086  -21.5081 C   0  0  0  0  0  0  0  0  0  0  0  0
 16 17  1  0  0  0
 17 15  1  0  0  0
 15  9  1  0  0  0
  9 10  2  0  0  0
 10 11  1  0  0  0
 11 12  2  0  0  0
 12  1  1  0  0  0
  1  2  1  0  0  0
  1  3  1  0  0  0
  3  4  1  0  0  0
  4  5  1  0  0  0
  5 18  1  0  0  0
 18 19  1  0  0  0
 19 20  2  0  0  0
 20 21  1  0  0  0
 21 22  2  0  0  0
 22 23  1  0  0  0
 23 24  2  0  0  0
 18 25  1  0  0  0
 25 26  2  0  0  0
 26 27  1  0  0  0
 27 28  2  0  0  0
 28 29  1  0  0  0
 29 30  2  0  0  0
  5  6  1  0  0  0
  6  7  1  0  0  0
 12 13  1  0  0  0
 13 14  2  0  0  0
 14  9  1  0  0  0
  7  1  1  0  0  0
 24 19  1  0  0  0
 30 25  1  0  0  0
  2  8  1  0  0  0
M  END
> <minimizedAffinity>
-7.08880

> <CNNscore>
0.1077545658

> <CNNaffinity>
5.4275732040

> <CNN_VS>
0.5848457813

> <CNNaffinity_variance>
0.4573758543

$$$$
[H]OC1(c2c([H])c([H])c(C([H])([H])C([H])([H])C([H])([H])[H])c([H])c2[H])C([H])([H])C([H])([H])N(C([H])(c2c([H])c([H])c([H])c([H])c2[H])c2c([H])c([H])c([H])c([H])c2[H])C([H])([H])C1([H])[H]


 30 33  0  0  0  0  0  0  0  0999 V2000
    3.3245  -51.1951  -24.2288 C   0  0  0  0  0  0  0  0  0  0  0  0
    2.3545  -50.4279  -23.5462 O   0  0  0  0  0  0  0  0  0  0  0  0
    3.9593  -52.0991  -23.2430 C   0  0  0  0  0  0  0  0  0  0  0  0
    4.4490  -51.2669  -22.0894 C   0  0  0  0  0  0  0  0  0  0  0  0
    4.7599  -49.9278  -22.4268 N   0  0  0  0  0  0  0  0  0  0  0  0
    5.1337  -49.5610  -23.7081 C   0  0  0  0  0  0  0  0  0  0  0  0
    4.3427  -50.2521  -24.7940 C   0  0  0  0  0  0  0  0  0  0  0  0
    1.4683  -50.8639  -23.6273 H   0  0  0  0  0  0  0  0  0  0  0  0
    1.1197  -53.3182  -27.2307 C   0  0  0  0  0  0  0  0  0  0  0  0
    2.1836  -52.5105  -27.5842 C   0  0  0  0  0  0  0  0  0  0  0  0
    2.9280  -51.8254  -26.6259 C   0  0  0  0  0  0  0  0  0  0  0  0
    2.6178  -51.9358  -25.2823 C   0  0  0  0  0  0  0  0  0  0  0  0
    1.5559  -52.7499  -24.9581 C   0  0  0  0  0  0  0  0  0  0  0  0
    0.8117  -53.4326  -25.8906 C   0  0  0  0  0  0  0  0  0  0  0  0
    0.2951  -53.9275  -28.2947 C   0  0  0  0  0  0  0  0  0  0  0  0
   -1.7721  -52.5933  -28.5178 C   0  0  0  0  0  0  0  0  0  0  0  0
   -0.4201  -52.8694  -29.1181 C   0  0  0  0  0  0  0  0  0  0  0  0
    4.4515  -48.9751  -21.4357 C   0  0  0  0  0  0  0  0  0  0  0  0
    4.1399  -47.5967  -21.9949 C   0  0  0  0  0  0  0  0  0  0  0  0
    4.8026  -46.4748  -21.4915 C   0  0  0  0  0  0  0  0  0  0  0  0
    4.5127  -45.2157  -21.9392 C   0  0  0  0  0  0  0  0  0  0  0  0
    3.5383  -45.0823  -22.9116 C   0  0  0  0  0  0  0  0  0  0  0  0
    2.8937  -46.1776  -23.4065 C   0  0  0  0  0  0  0  0  0  0  0  0
    3.1995  -47.4668  -22.9394 C   0  0  0  0  0  0  0  0  0  0  0  0
    3.3266  -49.2549  -20.5451 C   0  0  0  0  0  0  0  0  0  0  0  0
    3.5445  -49.7052  -19.2459 C   0  0  0  0  0  0  0  0  0  0  0  0
    2.5231  -49.9105  -18.3626 C   0  0  0  0  0  0  0  0  0  0  0  0
    1.2057  -49.6677  -18.7411 C   0  0  0  0  0  0  0  0  0  0  0  0
    0.9705  -49.2310  -20.0140 C   0  0  0  0  0  0  0  0  0  0  0  0
    2.0262  -49.0339  -20.8914 C   0  0  0  0  0  0  0  0  0  0  0  0
 16 17  1  0  0  0
 17 15  1  0  0  0
 15  9  1  0  0  0
  9 10  2  0  0  0
 10 11  1  0  0  0
 11 12  2  0  0  0
 12  1  1  0  0  0
  1  2  1  0  0  0
  1  3  1  0  0  0
  3  4  1  0  0  0
  4  5  1  0  0  0
  5 18  1  0  0  0
 18 19  1  0  0  0
 19 20  2  0  0  0
 20 21  1  0  0  0
 21 22  2  0  0  0
 22 23  1  0  0  0
 23 24  2  0  0  0
 18 25  1  0  0  0
 25 26  2  0  0  0
 26 27  1  0  0  0
 27 28  2  0  0  0
 28 29  1  0  0  0
 29 30  2  0  0  0
  5  6  1  0  0  0
  6  7  1  0  0  0
 12 13  1  0  0  0
 13 14  2  0  0  0
 14  9  1  0  0  0
  7  1  1  0  0  0
 24 19  1  0  0  0
 30 25  1  0  0  0
  2  8  1  0  0  0
M  END
> <minimizedAffinity>
-6.50189

> <CNNscore>
0.1071852148

> <CNNaffinity>
5.6324448586

> <CNN_VS>
0.6037148237

> <CNNaffinity_variance>
0.3024658263

$$$$
[H]OC1(c2c([H])c([H])c(C([H])([H])C([H])([H])C([H])([H])[H])c([H])c2[H])C([H])([H])C([H])([H])N(C([H])(c2c([H])c([H])c([H])c([H])c2[H])c2c([H])c([H])c([H])c([H])c2[H])C([H])([H])C1([H])[H]


 30 33  0  0  0  0  0  0  0  0999 V2000
    1.1952  -51.1177  -20.2122 C   0  0  0  0  0  0  0  0  0  0  0  0
    2.5441  -51.3914  -19.8941 O   0  0  0  0  0  0  0  0  0  0  0  0
    1.0357  -49.6470  -20.2711 C   0  0  0  0  0  0  0  0  0  0  0  0
    1.5551  -49.0661  -18.9842 C   0  0  0  0  0  0  0  0  0  0  0  0
    1.4828  -49.9447  -17.8767 N   0  0  0  0  0  0  0  0  0  0  0  0
    0.5510  -50.9660  -17.8088 C   0  0  0  0  0  0  0  0  0  0  0  0
    0.3405  -51.6857  -19.1203 C   0  0  0  0  0  0  0  0  0  0  0  0
    3.0593  -51.5378  -20.7278 H   0  0  0  0  0  0  0  0  0  0  0  0
    0.5552  -53.0492  -23.9858 C   0  0  0  0  0  0  0  0  0  0  0  0
   -0.4596  -52.9885  -23.0499 C   0  0  0  0  0  0  0  0  0  0  0  0
   -0.2827  -52.3497  -21.8242 C   0  0  0  0  0  0  0  0  0  0  0  0
    0.9254  -51.7547  -21.5081 C   0  0  0  0  0  0  0  0  0  0  0  0
    1.9174  -51.8267  -22.4601 C   0  0  0  0  0  0  0  0  0  0  0  0
    1.7595  -52.4526  -23.6737 C   0  0  0  0  0  0  0  0  0  0  0  0
    0.3502  -53.8381  -25.2182 C   0  0  0  0  0  0  0  0  0  0  0  0
   -0.1747  -51.7551  -26.4383 C   0  0  0  0  0  0  0  0  0  0  0  0
   -0.6350  -53.1595  -26.1551 C   0  0  0  0  0  0  0  0  0  0  0  0
    2.5531  -49.8465  -16.9657 C   0  0  0  0  0  0  0  0  0  0  0  0
    2.6894  -48.4703  -16.3354 C   0  0  0  0  0  0  0  0  0  0  0  0
    3.9097  -47.7934  -16.3979 C   0  0  0  0  0  0  0  0  0  0  0  0
    4.0798  -46.5749  -15.8012 C   0  0  0  0  0  0  0  0  0  0  0  0
    3.0025  -46.0266  -15.1292 C   0  0  0  0  0  0  0  0  0  0  0  0
    1.8095  -46.6851  -15.0712 C   0  0  0  0  0  0  0  0  0  0  0  0
    1.6456  -47.9367  -15.6880 C   0  0  0  0  0  0  0  0  0  0  0  0
    2.5640  -50.7583  -15.8232 C   0  0  0  0  0  0  0  0  0  0  0  0
    3.7429  -51.3819  -15.4236 C   0  0  0  0  0  0  0  0  0  0  0  0
    3.8075  -52.1846  -14.3204 C   0  0  0  0  0  0  0  0  0  0  0  0
    2.6736  -52.4060  -13.5437 C   0  0  0  0  0  0  0  0  0  0  0  0
    1.5054  -51.8077  -13.9226 C   0  0  0  0  0  0  0  0  0  0  0  0
    1.4675  -50.9999  -15.0493 C   0  0  0  0  0  0  0  0  0  0  0  0
 16 17  1  0  0  0
 17 15  1  0  0  0
 15  9  1  0  0  0
  9 10  2  0  0  0
 10 11  1  0  0  0
 11 12  2  0  0  0
 12  1  1  0  0  0
  1  2  1  0  0  0
  1  3  1  0  0  0
  3  4  1  0  0  0
  4  5  1  0  0  0
  5 18  1  0  0  0
 18 19  1  0  0  0
 19 20  2  0  0  0
 20 21  1  0  0  0
 21 22  2  0  0  0
 22 23  1  0  0  0
 23 24  2  0  0  0
 18 25  1  0  0  0
 25 26  2  0  0  0
 26 27  1  0  0  0
 27 28  2  0  0  0
 28 29  1  0  0  0
 29 30  2  0  0  0
  5  6  1  0  0  0
  6  7  1  0  0  0
 12 13  1  0  0  0
 13 14  2  0  0  0
 14  9  1  0  0  0
  7  1  1  0  0  0
 24 19  1  0  0  0
 30 25  1  0  0  0
  2  8  1  0  0  0
M  END
> <minimizedAffinity>
-6.65836

> <CNNscore>
0.1040525958

> <CNNaffinity>
5.0752463341

> <CNN_VS>
0.5280925632

> <CNNaffinity_variance>
0.3181792796

$$$$
[H]OC1(c2c([H])c([H])c(C([H])([H])C([H])([H])C([H])([H])[H])c([H])c2[H])C([H])([H])C([H])([H])N(C([H])(c2c([H])c([H])c([H])c([H])c2[H])c2c([H])c([H])c([H])c([H])c2[H])C([H])([H])C1([H])[H]


 30 33  0  0  0  0  0  0  0  0999 V2000
   -0.1846  -52.6989  -21.2474 C   0  0  0  0  0  0  0  0  0  0  0  0
    1.1900  -52.7908  -21.5594 O   0  0  0  0  0  0  0  0  0  0  0  0
   -0.8201  -53.9804  -21.6294 C   0  0  0  0  0  0  0  0  0  0  0  0
   -0.4734  -54.2672  -23.0650 C   0  0  0  0  0  0  0  0  0  0  0  0
   -0.2126  -53.1142  -23.8436 N   0  0  0  0  0  0  0  0  0  0  0  0
   -0.7546  -51.8793  -23.5317 C   0  0  0  0  0  0  0  0  0  0  0  0
   -0.7650  -51.5757  -22.0518 C   0  0  0  0  0  0  0  0  0  0  0  0
    1.6938  -53.0855  -20.7587 H   0  0  0  0  0  0  0  0  0  0  0  0
   -0.4649  -51.7974  -17.0654 C   0  0  0  0  0  0  0  0  0  0  0  0
   -1.1803  -52.8499  -17.6037 C   0  0  0  0  0  0  0  0  0  0  0  0
   -1.0914  -53.1751  -18.9558 C   0  0  0  0  0  0  0  0  0  0  0  0
   -0.2777  -52.4452  -19.8035 C   0  0  0  0  0  0  0  0  0  0  0  0
    0.4266  -51.4049  -19.2401 C   0  0  0  0  0  0  0  0  0  0  0  0
    0.3504  -51.0709  -17.9089 C   0  0  0  0  0  0  0  0  0  0  0  0
   -0.6861  -51.4258  -15.6526 C   0  0  0  0  0  0  0  0  0  0  0  0
   -1.4569  -49.1009  -15.3300 C   0  0  0  0  0  0  0  0  0  0  0  0
   -1.9026  -50.5284  -15.4978 C   0  0  0  0  0  0  0  0  0  0  0  0
    0.7988  -53.2643  -24.8129 C   0  0  0  0  0  0  0  0  0  0  0  0
    0.2995  -53.1092  -26.2400 C   0  0  0  0  0  0  0  0  0  0  0  0
   -0.9957  -52.6432  -26.4780 C   0  0  0  0  0  0  0  0  0  0  0  0
   -1.4923  -52.5364  -27.7475 C   0  0  0  0  0  0  0  0  0  0  0  0
   -0.6709  -52.9047  -28.7975 C   0  0  0  0  0  0  0  0  0  0  0  0
    0.5952  -53.3559  -28.5661 C   0  0  0  0  0  0  0  0  0  0  0  0
    1.0954  -53.4617  -27.2576 C   0  0  0  0  0  0  0  0  0  0  0  0
    1.9499  -52.3660  -24.7444 C   0  0  0  0  0  0  0  0  0  0  0  0
    3.2105  -52.8516  -24.4079 C   0  0  0  0  0  0  0  0  0  0  0  0
    4.3218  -52.0575  -24.4015 C   0  0  0  0  0  0  0  0  0  0  0  0
    4.2267  -50.7110  -24.7414 C   0  0  0  0  0  0  0  0  0  0  0  0
    2.9971  -50.2138  -25.0689 C   0  0  0  0  0  0  0  0  0  0  0  0
    1.8847  -51.0419  -25.0642 C   0  0  0  0  0  0  0  0  0  0  0  0
 16 17  1  0  0  0
 17 15  1  0  0  0
 15  9  1  0  0  0
  9 10  2  0  0  0
 10 11  1  0  0  0
 11 12  2  0  0  0
 12  1  1  0  0  0
  1  2  1  0  0  0
  1  3  1  0  0  0
  3  4  1  0  0  0
  4  5  1  0  0  0
  5 18  1  0  0  0
 18 19  1  0  0  0
 19 20  2  0  0  0
 20 21  1  0  0  0
 21 22  2  0  0  0
 22 23  1  0  0  0
 23 24  2  0  0  0
 18 25  1  0  0  0
 25 26  2  0  0  0
 26 27  1  0  0  0
 27 28  2  0  0  0
 28 29  1  0  0  0
 29 30  2  0  0  0
  5  6  1  0  0  0
  6  7  1  0  0  0
 12 13  1  0  0  0
 13 14  2  0  0  0
 14  9  1  0  0  0
  7  1  1  0  0  0
 24 19  1  0  0  0
 30 25  1  0  0  0
  2  8  1  0  0  0
M  END
> <minimizedAffinity>
-8.30668

> <CNNscore>
0.0985156894

> <CNNaffinity>
6.0960402489

> <CNN_VS>
0.6005555987

> <CNNaffinity_variance>
0.1523928493

$$$$
[H]N=C(c1c([H])c([H])c([H])c(Oc2nc(Oc3c([H])c([H])c([H])c(N([H])C(=O)C([H])([H])[H])c3[H])c(F)c(C([H])([H])[H])c2F)c1[H])N([H])[H]


 34 36  0  0  0  0  0  0  0  0999 V2000
    1.7168  -52.1418  -20.9450 C   0  0  0  0  0  0  0  0  0  0  0  0
    1.6235  -51.5056  -22.1378 N   0  0  0  0  0  0  0  0  0  0  0  0
    0.6530  -51.7090  -23.0319 C   0  0  0  0  0  0  0  0  0  0  0  0
   -0.3320  -52.6283  -22.7353 C   0  0  0  0  0  0  0  0  0  0  0  0
   -1.3331  -52.8507  -23.6357 F   0  0  0  0  0  0  0  0  0  0  0  0
   -0.3087  -53.3164  -21.5441 C   0  0  0  0  0  0  0  0  0  0  0  0
   -1.3570  -54.3099  -21.2028 C   0  0  0  0  0  0  0  0  0  0  0  0
    0.7227  -53.0553  -20.6699 C   0  0  0  0  0  0  0  0  0  0  0  0
    0.7015  -53.7644  -19.5016 F   0  0  0  0  0  0  0  0  0  0  0  0
    2.7378  -51.8821  -20.0821 O   0  0  0  0  0  0  0  0  0  0  0  0
    1.7147  -49.2681  -17.7180 C   0  0  0  0  0  0  0  0  0  0  0  0
    2.9418  -48.6832  -17.5242 C   0  0  0  0  0  0  0  0  0  0  0  0
    4.1001  -49.1128  -18.1407 C   0  0  0  0  0  0  0  0  0  0  0  0
    4.0599  -50.1735  -18.9948 C   0  0  0  0  0  0  0  0  0  0  0  0
    2.8612  -50.8019  -19.2304 C   0  0  0  0  0  0  0  0  0  0  0  0
    1.7277  -50.3534  -18.6044 C   0  0  0  0  0  0  0  0  0  0  0  0
   -1.3137  -48.5574  -15.4270 C   0  0  0  0  0  0  0  0  0  0  0  0
    0.0253  -49.0898  -15.8435 C   0  0  0  0  0  0  0  0  0  0  0  0
    0.6459  -49.7252  -14.9835 O   0  0  0  0  0  0  0  0  0  0  0  0
    0.4990  -48.8596  -17.1256 N   0  0  0  0  0  0  0  0  0  0  0  0
   -0.1346  -48.2911  -17.7928 H   0  0  0  0  0  0  0  0  0  0  0  0
    0.6483  -51.0009  -24.2332 O   0  0  0  0  0  0  0  0  0  0  0  0
    0.3566  -51.5999  -25.4433 C   0  0  0  0  0  0  0  0  0  0  0  0
   -0.9353  -51.7280  -25.9352 C   0  0  0  0  0  0  0  0  0  0  0  0
   -1.1740  -52.3317  -27.1449 C   0  0  0  0  0  0  0  0  0  0  0  0
   -0.1200  -52.8342  -27.9142 C   0  0  0  0  0  0  0  0  0  0  0  0
    1.1579  -52.7209  -27.4534 C   0  0  0  0  0  0  0  0  0  0  0  0
    1.3750  -52.0970  -26.2090 C   0  0  0  0  0  0  0  0  0  0  0  0
    2.2963  -53.2231  -28.2076 C   0  0  0  0  0  0  0  0  0  0  0  0
    2.2800  -54.3604  -28.7613 N   0  0  0  0  0  0  0  0  0  0  0  0
    3.4574  -52.4205  -28.3287 N   0  0  0  0  0  0  0  0  0  0  0  0
    1.4838  -54.9950  -28.7200 H   0  0  0  0  0  0  0  0  0  0  0  0
    4.3603  -52.8013  -28.0017 H   0  0  0  0  0  0  0  0  0  0  0  0
    3.3891  -51.4742  -28.7379 H   0  0  0  0  0  0  0  0  0  0  0  0
 17 18  1  0  0  0
 18 19  2  0  0  0
 18 20  1  0  0  0
 20 11  1  0  0  0
 11 12  2  0  0  0
 12 13  1  0  0  0
 13 14  2  0  0  0
 14 15  1  0  0  0
 15 10  1  0  0  0
 10  1  1  0  0  0
  1  2  2  0  0  0
  2  3  1  0  0  0
  3 22  1  0  0  0
 22 23  1  0  0  0
 23 24  2  0  0  0
 24 25  1  0  0  0
 25 26  2  0  0  0
 26 27  1  0  0  0
 27 29  1  0  0  0
 29 30  2  0  0  0
 29 31  1  0  0  0
 27 28  2  0  0  0
  3  4  2  0  0  0
  4  5  1  0  0  0
  4  6  1  0  0  0
  6  7  1  0  0  0
  6  8  2  0  0  0
  8  9  1  0  0  0
 15 16  2  0  0  0
 16 11  1  0  0  0
  8  1  1  0  0  0
 28 23  1  0  0  0
 20 21  1  0  0  0
 30 32  1  0  0  0
 31 33  1  0  0  0
 31 34  1  0  0  0
M  END
> <minimizedAffinity>
-8.15191

> <CNNscore>
0.1828965694

> <CNNaffinity>
6.3670434952

> <CNN_VS>
1.1645103693

> <CNNaffinity_variance>
0.1958574355

$$$$
[H]N=C(c1c([H])c([H])c([H])c(Oc2nc(Oc3c([H])c([H])c([H])c(N([H])C(=O)C([H])([H])[H])c3[H])c(F)c(C([H])([H])[H])c2F)c1[H])N([H])[H]


 34 36  0  0  0  0  0  0  0  0999 V2000
   -0.1798  -51.6781  -21.1193 C   0  0  0  0  0  0  0  0  0  0  0  0
   -0.4111  -52.2093  -19.8943 N   0  0  0  0  0  0  0  0  0  0  0  0
   -0.0014  -51.6695  -18.7439 C   0  0  0  0  0  0  0  0  0  0  0  0
    0.7084  -50.4873  -18.7885 C   0  0  0  0  0  0  0  0  0  0  0  0
    1.1360  -49.9190  -17.6238 F   0  0  0  0  0  0  0  0  0  0  0  0
    0.9846  -49.8840  -19.9938 C   0  0  0  0  0  0  0  0  0  0  0  0
    1.7462  -48.6123  -20.0670 C   0  0  0  0  0  0  0  0  0  0  0  0
    0.5307  -50.4978  -21.1398 C   0  0  0  0  0  0  0  0  0  0  0  0
    0.8310  -49.8600  -22.3109 F   0  0  0  0  0  0  0  0  0  0  0  0
   -0.6296  -52.2869  -22.2513 O   0  0  0  0  0  0  0  0  0  0  0  0
    2.3255  -52.8648  -24.3495 C   0  0  0  0  0  0  0  0  0  0  0  0
    1.6804  -53.2074  -25.5123 C   0  0  0  0  0  0  0  0  0  0  0  0
    0.3065  -53.2574  -25.6389 C   0  0  0  0  0  0  0  0  0  0  0  0
   -0.4839  -52.9565  -24.5708 C   0  0  0  0  0  0  0  0  0  0  0  0
    0.1018  -52.6062  -23.3785 C   0  0  0  0  0  0  0  0  0  0  0  0
    1.4682  -52.5649  -23.2824 C   0  0  0  0  0  0  0  0  0  0  0  0
    6.0411  -51.8412  -24.0829 C   0  0  0  0  0  0  0  0  0  0  0  0
    4.5682  -51.6946  -24.3254 C   0  0  0  0  0  0  0  0  0  0  0  0
    4.1849  -50.5682  -24.6611 O   0  0  0  0  0  0  0  0  0  0  0  0
    3.7244  -52.7834  -24.1708 N   0  0  0  0  0  0  0  0  0  0  0  0
    4.1753  -53.7210  -23.8752 H   0  0  0  0  0  0  0  0  0  0  0  0
   -0.2921  -52.2975  -17.5333 O   0  0  0  0  0  0  0  0  0  0  0  0
   -1.4894  -52.1078  -16.8708 C   0  0  0  0  0  0  0  0  0  0  0  0
   -2.5961  -52.9257  -17.0537 C   0  0  0  0  0  0  0  0  0  0  0  0
   -3.7649  -52.6961  -16.3710 C   0  0  0  0  0  0  0  0  0  0  0  0
   -3.8709  -51.6301  -15.4722 C   0  0  0  0  0  0  0  0  0  0  0  0
   -2.7984  -50.8122  -15.2748 C   0  0  0  0  0  0  0  0  0  0  0  0
   -1.6111  -51.0703  -15.9882 C   0  0  0  0  0  0  0  0  0  0  0  0
   -2.8463  -49.6875  -14.3530 C   0  0  0  0  0  0  0  0  0  0  0  0
   -3.9417  -49.1688  -13.9903 N   0  0  0  0  0  0  0  0  0  0  0  0
   -1.6362  -49.1550  -13.8441 N   0  0  0  0  0  0  0  0  0  0  0  0
   -4.8522  -49.4946  -14.3114 H   0  0  0  0  0  0  0  0  0  0  0  0
   -1.4303  -48.1546  -13.9990 H   0  0  0  0  0  0  0  0  0  0  0  0
   -0.9805  -49.7659  -13.3298 H   0  0  0  0  0  0  0  0  0  0  0  0
 17 18  1  0  0  0
 18 19  2  0  0  0
 18 20  1  0  0  0
 20 11  1  0  0  0
 11 12  2  0  0  0
 12 13  1  0  0  0
 13 14  2  0  0  0
 14 15  1  0  0  0
 15 10  1  0  0  0
 10  1  1  0  0  0
  1  2  2  0  0  0
  2  3  1  0  0  0
  3 22  1  0  0  0
 22 23  1  0  0  0
 23 24  2  0  0  0
 24 25  1  0  0  0
 25 26  2  0  0  0
 26 27  1  0  0  0
 27 29  1  0  0  0
 29 30  2  0  0  0
 29 31  1  0  0  0
 27 28  2  0  0  0
  3  4  2  0  0  0
  4  5  1  0  0  0
  4  6  1  0  0  0
  6  7  1  0  0  0
  6  8  2  0  0  0
  8  9  1  0  0  0
 15 16  2  0  0  0
 16 11  1  0  0  0
  8  1  1  0  0  0
 28 23  1  0  0  0
 20 21  1  0  0  0
 30 32  1  0  0  0
 31 33  1  0  0  0
 31 34  1  0  0  0
M  END
> <minimizedAffinity>
-7.79094

> <CNNscore>
0.1670202017

> <CNNaffinity>
6.0157880783

> <CNN_VS>
1.0047581196

> <CNNaffinity_variance>
0.2256117165

$$$$
[H]N=C(c1c([H])c([H])c([H])c(Oc2nc(Oc3c([H])c([H])c([H])c(N([H])C(=O)C([H])([H])[H])c3[H])c(F)c(C([H])([H])[H])c2F)c1[H])N([H])[H]


 34 36  0  0  0  0  0  0  0  0999 V2000
    1.0163  -51.0580  -22.0472 C   0  0  0  0  0  0  0  0  0  0  0  0
    0.7318  -51.9235  -23.0502 N   0  0  0  0  0  0  0  0  0  0  0  0
    0.0469  -53.0598  -22.9001 C   0  0  0  0  0  0  0  0  0  0  0  0
   -0.4104  -53.3903  -21.6412 C   0  0  0  0  0  0  0  0  0  0  0  0
   -1.1126  -54.5472  -21.4665 F   0  0  0  0  0  0  0  0  0  0  0  0
   -0.1628  -52.5638  -20.5694 C   0  0  0  0  0  0  0  0  0  0  0  0
   -0.6446  -52.8980  -19.2060 C   0  0  0  0  0  0  0  0  0  0  0  0
    0.5500  -51.4082  -20.7988 C   0  0  0  0  0  0  0  0  0  0  0  0
    0.7702  -50.6218  -19.7027 F   0  0  0  0  0  0  0  0  0  0  0  0
    1.7215  -49.9159  -22.2763 O   0  0  0  0  0  0  0  0  0  0  0  0
    4.0755  -48.8005  -24.8616 C   0  0  0  0  0  0  0  0  0  0  0  0
    5.1962  -49.4483  -24.4036 C   0  0  0  0  0  0  0  0  0  0  0  0
    5.2133  -50.2419  -23.2739 C   0  0  0  0  0  0  0  0  0  0  0  0
    4.0726  -50.4137  -22.5490 C   0  0  0  0  0  0  0  0  0  0  0  0
    2.9173  -49.7912  -22.9558 C   0  0  0  0  0  0  0  0  0  0  0  0
    2.9304  -49.0095  -24.0813 C   0  0  0  0  0  0  0  0  0  0  0  0
    3.7877  -47.3210  -28.4187 C   0  0  0  0  0  0  0  0  0  0  0  0
    3.8370  -48.3640  -27.3419 C   0  0  0  0  0  0  0  0  0  0  0  0
    3.7248  -49.5362  -27.7189 O   0  0  0  0  0  0  0  0  0  0  0  0
    4.0000  -47.9911  -26.0169 N   0  0  0  0  0  0  0  0  0  0  0  0
    4.0895  -46.9338  -25.8077 H   0  0  0  0  0  0  0  0  0  0  0  0
   -0.1929  -53.8831  -23.9998 O   0  0  0  0  0  0  0  0  0  0  0  0
   -0.1971  -53.4036  -25.2953 C   0  0  0  0  0  0  0  0  0  0  0  0
   -1.2750  -52.7281  -25.8513 C   0  0  0  0  0  0  0  0  0  0  0  0
   -1.2306  -52.2701  -27.1448 C   0  0  0  0  0  0  0  0  0  0  0  0
   -0.0964  -52.4728  -27.9372 C   0  0  0  0  0  0  0  0  0  0  0  0
    0.9754  -53.1335  -27.4146 C   0  0  0  0  0  0  0  0  0  0  0  0
    0.9036  -53.5928  -26.0847 C   0  0  0  0  0  0  0  0  0  0  0  0
    2.1837  -53.3748  -28.1883 C   0  0  0  0  0  0  0  0  0  0  0  0
    2.3113  -54.3955  -28.9248 N   0  0  0  0  0  0  0  0  0  0  0  0
    3.2498  -52.4443  -28.1190 N   0  0  0  0  0  0  0  0  0  0  0  0
    1.5910  -55.1089  -29.0275 H   0  0  0  0  0  0  0  0  0  0  0  0
    4.1804  -52.7773  -27.8186 H   0  0  0  0  0  0  0  0  0  0  0  0
    3.0865  -51.4546  -28.3668 H   0  0  0  0  0  0  0  0  0  0  0  0
 17 18  1  0  0  0
 18 19  2  0  0  0
 18 20  1  0  0  0
 20 11  1  0  0  0
 11 12  2  0  0  0
 12 13  1  0  0  0
 13 14  2  0  0  0
 14 15  1  0  0  0
 15 10  1  0  0  0
 10  1  1  0  0  0
  1  2  2  0  0  0
  2  3  1  0  0  0
  3 22  1  0  0  0
 22 23  1  0  0  0
 23 24  2  0  0  0
 24 25  1  0  0  0
 25 26  2  0  0  0
 26 27  1  0  0  0
 27 29  1  0  0  0
 29 30  2  0  0  0
 29 31  1  0  0  0
 27 28  2  0  0  0
  3  4  2  0  0  0
  4  5  1  0  0  0
  4  6  1  0  0  0
  6  7  1  0  0  0
  6  8  2  0  0  0
  8  9  1  0  0  0
 15 16  2  0  0  0
 16 11  1  0  0  0
  8  1  1  0  0  0
 28 23  1  0  0  0
 20 21  1  0  0  0
 30 32  1  0  0  0
 31 33  1  0  0  0
 31 34  1  0  0  0
M  END
> <minimizedAffinity>
-8.38330

> <CNNscore>
0.1584488302

> <CNNaffinity>
6.2815766335

> <CNN_VS>
0.9953084588

> <CNNaffinity_variance>
0.3628184497

$$$$
[H]N=C(c1c([H])c([H])c([H])c(Oc2nc(Oc3c([H])c([H])c([H])c(N([H])C(=O)C([H])([H])[H])c3[H])c(F)c(C([H])([H])[H])c2F)c1[H])N([H])[H]


 34 36  0  0  0  0  0  0  0  0999 V2000
    0.5413  -52.7690  -21.6080 C   0  0  0  0  0  0  0  0  0  0  0  0
    1.6128  -51.9566  -21.4407 N   0  0  0  0  0  0  0  0  0  0  0  0
    1.9484  -51.3715  -20.2884 C   0  0  0  0  0  0  0  0  0  0  0  0
    1.1587  -51.6002  -19.1806 C   0  0  0  0  0  0  0  0  0  0  0  0
    1.4846  -51.0117  -17.9932 F   0  0  0  0  0  0  0  0  0  0  0  0
    0.0523  -52.4134  -19.2680 C   0  0  0  0  0  0  0  0  0  0  0  0
   -0.8122  -52.6744  -18.0902 C   0  0  0  0  0  0  0  0  0  0  0  0
   -0.2330  -52.9832  -20.4886 C   0  0  0  0  0  0  0  0  0  0  0  0
   -1.3419  -53.7817  -20.5238 F   0  0  0  0  0  0  0  0  0  0  0  0
    0.2610  -53.3314  -22.8161 O   0  0  0  0  0  0  0  0  0  0  0  0
    0.5939  -52.8072  -26.4331 C   0  0  0  0  0  0  0  0  0  0  0  0
    1.9475  -52.5806  -26.4780 C   0  0  0  0  0  0  0  0  0  0  0  0
    2.7626  -52.5925  -25.3636 C   0  0  0  0  0  0  0  0  0  0  0  0
    2.2276  -52.8391  -24.1352 C   0  0  0  0  0  0  0  0  0  0  0  0
    0.8783  -53.0734  -24.0242 C   0  0  0  0  0  0  0  0  0  0  0  0
    0.0940  -53.0554  -25.1478 C   0  0  0  0  0  0  0  0  0  0  0  0
   -2.3862  -52.6854  -28.8885 C   0  0  0  0  0  0  0  0  0  0  0  0
   -1.6520  -52.6195  -27.5823 C   0  0  0  0  0  0  0  0  0  0  0  0
   -2.3426  -52.3800  -26.5851 O   0  0  0  0  0  0  0  0  0  0  0  0
   -0.2812  -52.8215  -27.5420 N   0  0  0  0  0  0  0  0  0  0  0  0
    0.2167  -53.0259  -28.4800 H   0  0  0  0  0  0  0  0  0  0  0  0
    3.0739  -50.5509  -20.2218 O   0  0  0  0  0  0  0  0  0  0  0  0
    3.7173  -50.0853  -21.3520 C   0  0  0  0  0  0  0  0  0  0  0  0
    3.4049  -48.8769  -21.9600 C   0  0  0  0  0  0  0  0  0  0  0  0
    4.0740  -48.4571  -23.0829 C   0  0  0  0  0  0  0  0  0  0  0  0
    5.0893  -49.2376  -23.6445 C   0  0  0  0  0  0  0  0  0  0  0  0
    5.4151  -50.4284  -23.0664 C   0  0  0  0  0  0  0  0  0  0  0  0
    4.7128  -50.8354  -21.9148 C   0  0  0  0  0  0  0  0  0  0  0  0
    6.4620  -51.2845  -23.6030 C   0  0  0  0  0  0  0  0  0  0  0  0
    6.1980  -52.3785  -24.1809 N   0  0  0  0  0  0  0  0  0  0  0  0
    7.8160  -50.8867  -23.4781 N   0  0  0  0  0  0  0  0  0  0  0  0
    5.2513  -52.7327  -24.3099 H   0  0  0  0  0  0  0  0  0  0  0  0
    8.4761  -51.5179  -22.9954 H   0  0  0  0  0  0  0  0  0  0  0  0
    8.1246  -49.9804  -23.8666 H   0  0  0  0  0  0  0  0  0  0  0  0
 17 18  1  0  0  0
 18 19  2  0  0  0
 18 20  1  0  0  0
 20 11  1  0  0  0
 11 12  2  0  0  0
 12 13  1  0  0  0
 13 14  2  0  0  0
 14 15  1  0  0  0
 15 10  1  0  0  0
 10  1  1  0  0  0
  1  2  2  0  0  0
  2  3  1  0  0  0
  3 22  1  0  0  0
 22 23  1  0  0  0
 23 24  2  0  0  0
 24 25  1  0  0  0
 25 26  2  0  0  0
 26 27  1  0  0  0
 27 29  1  0  0  0
 29 30  2  0  0  0
 29 31  1  0  0  0
 27 28  2  0  0  0
  3  4  2  0  0  0
  4  5  1  0  0  0
  4  6  1  0  0  0
  6  7  1  0  0  0
  6  8  2  0  0  0
  8  9  1  0  0  0
 15 16  2  0  0  0
 16 11  1  0  0  0
  8  1  1  0  0  0
 28 23  1  0  0  0
 20 21  1  0  0  0
 30 32  1  0  0  0
 31 33  1  0  0  0
 31 34  1  0  0  0
M  END
> <minimizedAffinity>
-8.14541

> <CNNscore>
0.1487441957

> <CNNaffinity>
6.3693599701

> <CNN_VS>
0.9474053383

> <CNNaffinity_variance>
0.2709065974

$$$$
[H]N=C(c1c([H])c([H])c([H])c(Oc2nc(Oc3c([H])c([H])c([H])c(N([H])C(=O)C([H])([H])[H])c3[H])c(F)c(C([H])([H])[H])c2F)c1[H])N([H])[H]


 34 36  0  0  0  0  0  0  0  0999 V2000
    1.4602  -52.3553  -20.4613 C   0  0  0  0  0  0  0  0  0  0  0  0
    1.7272  -51.4921  -21.4711 N   0  0  0  0  0  0  0  0  0  0  0  0
    1.1619  -51.5406  -22.6798 C   0  0  0  0  0  0  0  0  0  0  0  0
    0.2385  -52.5336  -22.9342 C   0  0  0  0  0  0  0  0  0  0  0  0
   -0.3510  -52.6005  -24.1631 F   0  0  0  0  0  0  0  0  0  0  0  0
   -0.0875  -53.4496  -21.9607 C   0  0  0  0  0  0  0  0  0  0  0  0
   -1.0777  -54.5264  -22.2108 C   0  0  0  0  0  0  0  0  0  0  0  0
    0.5354  -53.3385  -20.7377 C   0  0  0  0  0  0  0  0  0  0  0  0
    0.1782  -54.2719  -19.8052 F   0  0  0  0  0  0  0  0  0  0  0  0
    2.0775  -52.2435  -19.2526 O   0  0  0  0  0  0  0  0  0  0  0  0
    1.3704  -49.2711  -17.2196 C   0  0  0  0  0  0  0  0  0  0  0  0
    2.6533  -48.7936  -17.1116 C   0  0  0  0  0  0  0  0  0  0  0  0
    3.7495  -49.4097  -17.6817 C   0  0  0  0  0  0  0  0  0  0  0  0
    3.5858  -50.5571  -18.3979 C   0  0  0  0  0  0  0  0  0  0  0  0
    2.3259  -51.0856  -18.5422 C   0  0  0  0  0  0  0  0  0  0  0  0
    1.2565  -50.4521  -17.9652 C   0  0  0  0  0  0  0  0  0  0  0  0
   -1.8320  -48.3427  -15.2683 C   0  0  0  0  0  0  0  0  0  0  0  0
   -0.6505  -49.1586  -15.7019 C   0  0  0  0  0  0  0  0  0  0  0  0
   -0.5174  -50.2553  -15.1469 O   0  0  0  0  0  0  0  0  0  0  0  0
    0.2145  -48.6731  -16.6702 N   0  0  0  0  0  0  0  0  0  0  0  0
   -0.0050  -47.6994  -17.0866 H   0  0  0  0  0  0  0  0  0  0  0  0
    1.5067  -50.6023  -23.6520 O   0  0  0  0  0  0  0  0  0  0  0  0
    2.7397  -49.9799  -23.6743 C   0  0  0  0  0  0  0  0  0  0  0  0
    2.9129  -48.6284  -23.4079 C   0  0  0  0  0  0  0  0  0  0  0  0
    4.1601  -48.0557  -23.4423 C   0  0  0  0  0  0  0  0  0  0  0  0
    5.2905  -48.8203  -23.7472 C   0  0  0  0  0  0  0  0  0  0  0  0
    5.1472  -50.1497  -24.0128 C   0  0  0  0  0  0  0  0  0  0  0  0
    3.8561  -50.7121  -23.9707 C   0  0  0  0  0  0  0  0  0  0  0  0
    6.2844  -50.9978  -24.3358 C   0  0  0  0  0  0  0  0  0  0  0  0
    7.3543  -50.5241  -24.8167 N   0  0  0  0  0  0  0  0  0  0  0  0
    6.1967  -52.3932  -24.1073 N   0  0  0  0  0  0  0  0  0  0  0  0
    7.4945  -49.5333  -25.0090 H   0  0  0  0  0  0  0  0  0  0  0  0
    6.3465  -53.0366  -24.9015 H   0  0  0  0  0  0  0  0  0  0  0  0
    5.9865  -52.7478  -23.1598 H   0  0  0  0  0  0  0  0  0  0  0  0
 17 18  1  0  0  0
 18 19  2  0  0  0
 18 20  1  0  0  0
 20 11  1  0  0  0
 11 12  2  0  0  0
 12 13  1  0  0  0
 13 14  2  0  0  0
 14 15  1  0  0  0
 15 10  1  0  0  0
 10  1  1  0  0  0
  1  2  2  0  0  0
  2  3  1  0  0  0
  3 22  1  0  0  0
 22 23  1  0  0  0
 23 24  2  0  0  0
 24 25  1  0  0  0
 25 26  2  0  0  0
 26 27  1  0  0  0
 27 29  1  0  0  0
 29 30  2  0  0  0
 29 31  1  0  0  0
 27 28  2  0  0  0
  3  4  2  0  0  0
  4  5  1  0  0  0
  4  6  1  0  0  0
  6  7  1  0  0  0
  6  8  2  0  0  0
  8  9  1  0  0  0
 15 16  2  0  0  0
 16 11  1  0  0  0
  8  1  1  0  0  0
 28 23  1  0  0  0
 20 21  1  0  0  0
 30 32  1  0  0  0
 31 33  1  0  0  0
 31 34  1  0  0  0
M  END
> <minimizedAffinity>
-7.36582

> <CNNscore>
0.1427588910

> <CNNaffinity>
5.7862691879

> <CNN_VS>
0.8260414004

> <CNNaffinity_variance>
0.4052586555

$$$$
[H]N=C(c1c([H])c([H])c([H])c(Oc2nc(Oc3c([H])c([H])c([H])c(N([H])C(=O)C([H])([H])[H])c3[H])c(F)c(C([H])([H])[H])c2F)c1[H])N([H])[H]


 34 36  0  0  0  0  0  0  0  0999 V2000
    0.8923  -50.6880  -20.7599 C   0  0  0  0  0  0  0  0  0  0  0  0
    0.8604  -51.5324  -21.8193 N   0  0  0  0  0  0  0  0  0  0  0  0
    0.3078  -52.7478  -21.8039 C   0  0  0  0  0  0  0  0  0  0  0  0
   -0.2761  -53.1898  -20.6348 C   0  0  0  0  0  0  0  0  0  0  0  0
   -0.8466  -54.4289  -20.5983 F   0  0  0  0  0  0  0  0  0  0  0  0
   -0.2853  -52.3917  -19.5141 C   0  0  0  0  0  0  0  0  0  0  0  0
   -0.9073  -52.8452  -18.2452 C   0  0  0  0  0  0  0  0  0  0  0  0
    0.3034  -51.1501  -19.6031 C   0  0  0  0  0  0  0  0  0  0  0  0
    0.2689  -50.3961  -18.4635 F   0  0  0  0  0  0  0  0  0  0  0  0
    1.4751  -49.4606  -20.8503 O   0  0  0  0  0  0  0  0  0  0  0  0
    3.6374  -47.5392  -18.5918 C   0  0  0  0  0  0  0  0  0  0  0  0
    4.8408  -48.0992  -18.9435 C   0  0  0  0  0  0  0  0  0  0  0  0
    4.9747  -49.0882  -19.8976 C   0  0  0  0  0  0  0  0  0  0  0  0
    3.8724  -49.5583  -20.5457 C   0  0  0  0  0  0  0  0  0  0  0  0
    2.6386  -49.0381  -20.2380 C   0  0  0  0  0  0  0  0  0  0  0  0
    2.5363  -48.0571  -19.2867 C   0  0  0  0  0  0  0  0  0  0  0  0
    3.2136  -44.2341  -16.6369 C   0  0  0  0  0  0  0  0  0  0  0  0
    3.4322  -45.1417  -17.8108 C   0  0  0  0  0  0  0  0  0  0  0  0
    3.5918  -44.5845  -18.9029 O   0  0  0  0  0  0  0  0  0  0  0  0
    3.4470  -46.5167  -17.6358 N   0  0  0  0  0  0  0  0  0  0  0  0
    3.2980  -46.8894  -16.6315 H   0  0  0  0  0  0  0  0  0  0  0  0
    0.3281  -53.5405  -22.9511 O   0  0  0  0  0  0  0  0  0  0  0  0
    0.3137  -53.0011  -24.2227 C   0  0  0  0  0  0  0  0  0  0  0  0
   -0.8481  -52.5808  -24.8560 C   0  0  0  0  0  0  0  0  0  0  0  0
   -0.8105  -52.0503  -26.1217 C   0  0  0  0  0  0  0  0  0  0  0  0
    0.4014  -51.9197  -26.8071 C   0  0  0  0  0  0  0  0  0  0  0  0
    1.5564  -52.3251  -26.2071 C   0  0  0  0  0  0  0  0  0  0  0  0
    1.4896  -52.8658  -24.9079 C   0  0  0  0  0  0  0  0  0  0  0  0
    2.8478  -52.2145  -26.8681 C   0  0  0  0  0  0  0  0  0  0  0  0
    3.5650  -53.2295  -27.1044 N   0  0  0  0  0  0  0  0  0  0  0  0
    3.3199  -50.9376  -27.2603 N   0  0  0  0  0  0  0  0  0  0  0  0
    3.2956  -54.1797  -26.8537 H   0  0  0  0  0  0  0  0  0  0  0  0
    4.2307  -50.6123  -26.8975 H   0  0  0  0  0  0  0  0  0  0  0  0
    2.7545  -50.3528  -27.8974 H   0  0  0  0  0  0  0  0  0  0  0  0
 17 18  1  0  0  0
 18 19  2  0  0  0
 18 20  1  0  0  0
 20 11  1  0  0  0
 11 12  2  0  0  0
 12 13  1  0  0  0
 13 14  2  0  0  0
 14 15  1  0  0  0
 15 10  1  0  0  0
 10  1  1  0  0  0
  1  2  2  0  0  0
  2  3  1  0  0  0
  3 22  1  0  0  0
 22 23  1  0  0  0
 23 24  2  0  0  0
 24 25  1  0  0  0
 25 26  2  0  0  0
 26 27  1  0  0  0
 27 29  1  0  0  0
 29 30  2  0  0  0
 29 31  1  0  0  0
 27 28  2  0  0  0
  3  4  2  0  0  0
  4  5  1  0  0  0
  4  6  1  0  0  0
  6  7  1  0  0  0
  6  8  2  0  0  0
  8  9  1  0  0  0
 15 16  2  0  0  0
 16 11  1  0  0  0
  8  1  1  0  0  0
 28 23  1  0  0  0
 20 21  1  0  0  0
 30 32  1  0  0  0
 31 33  1  0  0  0
 31 34  1  0  0  0
M  END
> <minimizedAffinity>
-7.22179

> <CNNscore>
0.1405671984

> <CNNaffinity>
6.0604758263

> <CNN_VS>
0.8519040942

> <CNNaffinity_variance>
0.1901972592

$$$$
[H]N=C(c1c([H])c([H])c([H])c(Oc2nc(Oc3c([H])c([H])c([H])c(N([H])C(=O)C([H])([H])[H])c3[H])c(F)c(C([H])([H])[H])c2F)c1[H])N([H])[H]


 34 36  0  0  0  0  0  0  0  0999 V2000
    1.6299  -50.7721  -20.9723 C   0  0  0  0  0  0  0  0  0  0  0  0
    1.6429  -50.2393  -19.7265 N   0  0  0  0  0  0  0  0  0  0  0  0
    2.7489  -49.9559  -19.0344 C   0  0  0  0  0  0  0  0  0  0  0  0
    3.9728  -50.2179  -19.6147 C   0  0  0  0  0  0  0  0  0  0  0  0
    5.1153  -49.9352  -18.9241 F   0  0  0  0  0  0  0  0  0  0  0  0
    4.0449  -50.7590  -20.8777 C   0  0  0  0  0  0  0  0  0  0  0  0
    5.3496  -51.0494  -21.5226 C   0  0  0  0  0  0  0  0  0  0  0  0
    2.8631  -51.0256  -21.5322 C   0  0  0  0  0  0  0  0  0  0  0  0
    2.9879  -51.5627  -22.7829 F   0  0  0  0  0  0  0  0  0  0  0  0
    0.4599  -51.0350  -21.6177 O   0  0  0  0  0  0  0  0  0  0  0  0
   -0.5358  -53.6804  -23.9585 C   0  0  0  0  0  0  0  0  0  0  0  0
   -0.9006  -54.6330  -23.0392 C   0  0  0  0  0  0  0  0  0  0  0  0
   -0.8335  -54.4435  -21.6733 C   0  0  0  0  0  0  0  0  0  0  0  0
   -0.3850  -53.2576  -21.1748 C   0  0  0  0  0  0  0  0  0  0  0  0
   -0.0045  -52.2638  -22.0439 C   0  0  0  0  0  0  0  0  0  0  0  0
   -0.0820  -52.4804  -23.3948 C   0  0  0  0  0  0  0  0  0  0  0  0
    0.1279  -54.0722  -27.7441 C   0  0  0  0  0  0  0  0  0  0  0  0
    0.4320  -53.9421  -26.2811 C   0  0  0  0  0  0  0  0  0  0  0  0
    1.6296  -53.9552  -25.9744 O   0  0  0  0  0  0  0  0  0  0  0  0
   -0.5990  -53.8169  -25.3631 N   0  0  0  0  0  0  0  0  0  0  0  0
   -1.6089  -53.8161  -25.7501 H   0  0  0  0  0  0  0  0  0  0  0  0
    2.6533  -49.4078  -17.7557 O   0  0  0  0  0  0  0  0  0  0  0  0
    2.2427  -50.1471  -16.6633 C   0  0  0  0  0  0  0  0  0  0  0  0
    0.9153  -50.2453  -16.2686 C   0  0  0  0  0  0  0  0  0  0  0  0
    0.5571  -50.9936  -15.1747 C   0  0  0  0  0  0  0  0  0  0  0  0
    1.5219  -51.6773  -14.4284 C   0  0  0  0  0  0  0  0  0  0  0  0
    2.8323  -51.5969  -14.7952 C   0  0  0  0  0  0  0  0  0  0  0  0
    3.1726  -50.8222  -15.9218 C   0  0  0  0  0  0  0  0  0  0  0  0
    3.8820  -52.2855  -14.0598 C   0  0  0  0  0  0  0  0  0  0  0  0
    4.5417  -53.2357  -14.5718 N   0  0  0  0  0  0  0  0  0  0  0  0
    4.1778  -51.8846  -12.7335 N   0  0  0  0  0  0  0  0  0  0  0  0
    4.3887  -53.5812  -15.5181 H   0  0  0  0  0  0  0  0  0  0  0  0
    4.1146  -52.5857  -11.9774 H   0  0  0  0  0  0  0  0  0  0  0  0
    4.4503  -50.9070  -12.5395 H   0  0  0  0  0  0  0  0  0  0  0  0
 17 18  1  0  0  0
 18 19  2  0  0  0
 18 20  1  0  0  0
 20 11  1  0  0  0
 11 12  2  0  0  0
 12 13  1  0  0  0
 13 14  2  0  0  0
 14 15  1  0  0  0
 15 10  1  0  0  0
 10  1  1  0  0  0
  1  2  2  0  0  0
  2  3  1  0  0  0
  3 22  1  0  0  0
 22 23  1  0  0  0
 23 24  2  0  0  0
 24 25  1  0  0  0
 25 26  2  0  0  0
 26 27  1  0  0  0
 27 29  1  0  0  0
 29 30  2  0  0  0
 29 31  1  0  0  0
 27 28  2  0  0  0
  3  4  2  0  0  0
  4  5  1  0  0  0
  4  6  1  0  0  0
  6  7  1  0  0  0
  6  8  2  0  0  0
  8  9  1  0  0  0
 15 16  2  0  0  0
 16 11  1  0  0  0
  8  1  1  0  0  0
 28 23  1  0  0  0
 20 21  1  0  0  0
 30 32  1  0  0  0
 31 33  1  0  0  0
 31 34  1  0  0  0
M  END
> <minimizedAffinity>
-8.15803

> <CNNscore>
0.1277659535

> <CNNaffinity>
5.8759055138

> <CNN_VS>
0.7507406473

> <CNNaffinity_variance>
0.2738462090

$$$$
[H]N=C(c1c([H])c([H])c([H])c(Oc2nc(Oc3c([H])c([H])c([H])c(N([H])C(=O)C([H])([H])[H])c3[H])c(F)c(C([H])([H])[H])c2F)c1[H])N([H])[H]


 34 36  0  0  0  0  0  0  0  0999 V2000
    1.3772  -51.1256  -21.2599 C   0  0  0  0  0  0  0  0  0  0  0  0
    1.8721  -51.4842  -20.0505 N   0  0  0  0  0  0  0  0  0  0  0  0
    3.0960  -51.1806  -19.6116 C   0  0  0  0  0  0  0  0  0  0  0  0
    3.9275  -50.4505  -20.4355 C   0  0  0  0  0  0  0  0  0  0  0  0
    5.1823  -50.1296  -20.0056 F   0  0  0  0  0  0  0  0  0  0  0  0
    3.4995  -50.0480  -21.6796 C   0  0  0  0  0  0  0  0  0  0  0  0
    4.3757  -49.2620  -22.5834 C   0  0  0  0  0  0  0  0  0  0  0  0
    2.2248  -50.3973  -22.0660 C   0  0  0  0  0  0  0  0  0  0  0  0
    1.8472  -49.9747  -23.3098 F   0  0  0  0  0  0  0  0  0  0  0  0
    0.1163  -51.4722  -21.6399 O   0  0  0  0  0  0  0  0  0  0  0  0
   -0.5591  -53.5876  -24.5618 C   0  0  0  0  0  0  0  0  0  0  0  0
   -0.9869  -54.7118  -23.8995 C   0  0  0  0  0  0  0  0  0  0  0  0
   -1.0641  -54.8066  -22.5242 C   0  0  0  0  0  0  0  0  0  0  0  0
   -0.7034  -53.7450  -21.7503 C   0  0  0  0  0  0  0  0  0  0  0  0
   -0.2662  -52.5908  -22.3539 C   0  0  0  0  0  0  0  0  0  0  0  0
   -0.2001  -52.5256  -23.7211 C   0  0  0  0  0  0  0  0  0  0  0  0
   -1.0506  -52.7446  -28.2998 C   0  0  0  0  0  0  0  0  0  0  0  0
   -1.3396  -52.7795  -26.8284 C   0  0  0  0  0  0  0  0  0  0  0  0
   -2.3702  -52.2008  -26.4658 O   0  0  0  0  0  0  0  0  0  0  0  0
   -0.4757  -53.4329  -25.9635 N   0  0  0  0  0  0  0  0  0  0  0  0
    0.3949  -53.9058  -26.3972 H   0  0  0  0  0  0  0  0  0  0  0  0
    3.5098  -51.5985  -18.3472 O   0  0  0  0  0  0  0  0  0  0  0  0
    3.4326  -50.7810  -17.2364 C   0  0  0  0  0  0  0  0  0  0  0  0
    3.6834  -51.2276  -15.9461 C   0  0  0  0  0  0  0  0  0  0  0  0
    3.5938  -50.3753  -14.8735 C   0  0  0  0  0  0  0  0  0  0  0  0
    3.2468  -49.0327  -15.0534 C   0  0  0  0  0  0  0  0  0  0  0  0
    2.9955  -48.5694  -16.3106 C   0  0  0  0  0  0  0  0  0  0  0  0
    3.0945  -49.4651  -17.3936 C   0  0  0  0  0  0  0  0  0  0  0  0
    2.6306  -47.1836  -16.5624 C   0  0  0  0  0  0  0  0  0  0  0  0
    1.9058  -46.5283  -15.7588 N   0  0  0  0  0  0  0  0  0  0  0  0
    3.0973  -46.5455  -17.7380 N   0  0  0  0  0  0  0  0  0  0  0  0
    1.5322  -46.9160  -14.8937 H   0  0  0  0  0  0  0  0  0  0  0  0
    2.4061  -46.1447  -18.3929 H   0  0  0  0  0  0  0  0  0  0  0  0
    4.1119  -46.4887  -17.9252 H   0  0  0  0  0  0  0  0  0  0  0  0
 17 18  1  0  0  0
 18 19  2  0  0  0
 18 20  1  0  0  0
 20 11  1  0  0  0
 11 12  2  0  0  0
 12 13  1  0  0  0
 13 14  2  0  0  0
 14 15  1  0  0  0
 15 10  1  0  0  0
 10  1  1  0  0  0
  1  2  2  0  0  0
  2  3  1  0  0  0
  3 22  1  0  0  0
 22 23  1  0  0  0
 23 24  2  0  0  0
 24 25  1  0  0  0
 25 26  2  0  0  0
 26 27  1  0  0  0
 27 29  1  0  0  0
 29 30  2  0  0  0
 29 31  1  0  0  0
 27 28  2  0  0  0
  3  4  2  0  0  0
  4  5  1  0  0  0
  4  6  1  0  0  0
  6  7  1  0  0  0
  6  8  2  0  0  0
  8  9  1  0  0  0
 15 16  2  0  0  0
 16 11  1  0  0  0
  8  1  1  0  0  0
 28 23  1  0  0  0
 20 21  1  0  0  0
 30 32  1  0  0  0
 31 33  1  0  0  0
 31 34  1  0  0  0
M  END
> <minimizedAffinity>
-7.74952

> <CNNscore>
0.1238109097

> <CNNaffinity>
5.8493995667

> <CNN_VS>
0.7242195010

> <CNNaffinity_variance>
0.1583206952

$$$$
[H]N=C(c1c([H])c([H])c([H])c(Oc2nc(Oc3c([H])c([H])c([H])c(N([H])C(=O)C([H])([H])[H])c3[H])c(F)c(C([H])([H])[H])c2F)c1[H])N([H])[H]


 34 36  0  0  0  0  0  0  0  0999 V2000
    1.7072  -50.1768  -21.7373 C   0  0  0  0  0  0  0  0  0  0  0  0
    1.8198  -48.9335  -22.2641 N   0  0  0  0  0  0  0  0  0  0  0  0
    2.9777  -48.3139  -22.5051 C   0  0  0  0  0  0  0  0  0  0  0  0
    4.1513  -48.9728  -22.2022 C   0  0  0  0  0  0  0  0  0  0  0  0
    5.3455  -48.3571  -22.4411 F   0  0  0  0  0  0  0  0  0  0  0  0
    4.1221  -50.2388  -21.6641 C   0  0  0  0  0  0  0  0  0  0  0  0
    5.3712  -50.9674  -21.3300 C   0  0  0  0  0  0  0  0  0  0  0  0
    2.8917  -50.8158  -21.4424 C   0  0  0  0  0  0  0  0  0  0  0  0
    2.9161  -52.0730  -20.9063 F   0  0  0  0  0  0  0  0  0  0  0  0
    0.4893  -50.7455  -21.5188 O   0  0  0  0  0  0  0  0  0  0  0  0
   -0.4646  -53.5145  -23.7305 C   0  0  0  0  0  0  0  0  0  0  0  0
   -0.7262  -54.4577  -22.7675 C   0  0  0  0  0  0  0  0  0  0  0  0
   -0.6023  -54.2227  -21.4126 C   0  0  0  0  0  0  0  0  0  0  0  0
   -0.2000  -52.9982  -20.9712 C   0  0  0  0  0  0  0  0  0  0  0  0
    0.0773  -52.0115  -21.8861 C   0  0  0  0  0  0  0  0  0  0  0  0
   -0.0547  -52.2736  -23.2246 C   0  0  0  0  0  0  0  0  0  0  0  0
    0.0314  -54.0337  -27.5265 C   0  0  0  0  0  0  0  0  0  0  0  0
    0.3998  -53.8556  -26.0834 C   0  0  0  0  0  0  0  0  0  0  0  0
    1.6097  -53.8612  -25.8295 O   0  0  0  0  0  0  0  0  0  0  0  0
   -0.5897  -53.6976  -25.1257 N   0  0  0  0  0  0  0  0  0  0  0  0
   -1.6157  -53.7075  -25.4676 H   0  0  0  0  0  0  0  0  0  0  0  0
    2.9847  -47.0307  -23.0510 O   0  0  0  0  0  0  0  0  0  0  0  0
    2.9915  -46.8073  -24.4142 C   0  0  0  0  0  0  0  0  0  0  0  0
    2.5957  -45.6071  -24.9888 C   0  0  0  0  0  0  0  0  0  0  0  0
    2.6207  -45.4335  -26.3505 C   0  0  0  0  0  0  0  0  0  0  0  0
    3.0461  -46.4634  -27.1954 C   0  0  0  0  0  0  0  0  0  0  0  0
    3.4397  -47.6518  -26.6559 C   0  0  0  0  0  0  0  0  0  0  0  0
    3.4043  -47.8033  -25.2556 C   0  0  0  0  0  0  0  0  0  0  0  0
    3.8929  -48.7605  -27.4819 C   0  0  0  0  0  0  0  0  0  0  0  0
    4.2494  -48.5941  -28.6842 N   0  0  0  0  0  0  0  0  0  0  0  0
    3.9385  -50.0643  -26.9296 N   0  0  0  0  0  0  0  0  0  0  0  0
    4.2451  -47.6890  -29.1524 H   0  0  0  0  0  0  0  0  0  0  0  0
    3.4021  -50.8174  -27.3903 H   0  0  0  0  0  0  0  0  0  0  0  0
    4.5011  -50.2453  -26.0821 H   0  0  0  0  0  0  0  0  0  0  0  0
 17 18  1  0  0  0
 18 19  2  0  0  0
 18 20  1  0  0  0
 20 11  1  0  0  0
 11 12  2  0  0  0
 12 13  1  0  0  0
 13 14  2  0  0  0
 14 15  1  0  0  0
 15 10  1  0  0  0
 10  1  1  0  0  0
  1  2  2  0  0  0
  2  3  1  0  0  0
  3 22  1  0  0  0
 22 23  1  0  0  0
 23 24  2  0  0  0
 24 25  1  0  0  0
 25 26  2  0  0  0
 26 27  1  0  0  0
 27 29  1  0  0  0
 29 30  2  0  0  0
 29 31  1  0  0  0
 27 28  2  0  0  0
  3  4  2  0  0  0
  4  5  1  0  0  0
  4  6  1  0  0  0
  6  7  1  0  0  0
  6  8  2  0  0  0
  8  9  1  0  0  0
 15 16  2  0  0  0
 16 11  1  0  0  0
  8  1  1  0  0  0
 28 23  1  0  0  0
 20 21  1  0  0  0
 30 32  1  0  0  0
 31 33  1  0  0  0
 31 34  1  0  0  0
M  END
> <minimizedAffinity>
-7.74330

> <CNNscore>
0.1195172668

> <CNNaffinity>
5.9862260818

> <CNN_VS>
0.7154573798

> <CNNaffinity_variance>
0.2497818917

$$$$
[H]c1c([H])c(C(N=[N+]=[N-])(C([H])([H])[H])C([H])([H])[H])c(Cl)c([H])c1C(F)(F)F


 17 17  0  0  0  0  0  0  0  0999 V2000
    0.0196  -53.4633  -24.8035 C   0  0  0  0  0  0  0  0  0  0  0  0
   -0.6170  -54.5978  -24.2568 C   0  0  0  0  0  0  0  0  0  0  0  0
   -0.7826  -54.5597  -22.9008 C   0  0  0  0  0  0  0  0  0  0  0  0
   -0.3968  -53.5913  -22.0470 C   0  0  0  0  0  0  0  0  0  0  0  0
    0.2465  -52.4603  -22.6091 C   0  0  0  0  0  0  0  0  0  0  0  0
    0.4388  -52.4254  -23.9962 C   0  0  0  0  0  0  0  0  0  0  0  0
    1.2696  -51.0215  -24.6953 Cl  0  0  0  0  0  0  0  0  0  0  0  0
   -0.6302  -53.5989  -20.5791 C   0  0  0  0  0  0  0  0  0  0  0  0
    0.3857  -54.2501  -19.8826 F   0  0  0  0  0  0  0  0  0  0  0  0
   -1.8527  -54.0915  -20.2637 F   0  0  0  0  0  0  0  0  0  0  0  0
   -0.5690  -52.2955  -20.0659 F   0  0  0  0  0  0  0  0  0  0  0  0
    1.6007  -52.8186  -26.5887 C   0  0  0  0  0  0  0  0  0  0  0  0
    0.1555  -53.3348  -26.2801 C   0  0  0  0  0  0  0  0  0  0  0  0
    0.0175  -54.6186  -27.0196 C   0  0  0  0  0  0  0  0  0  0  0  0
   -0.7566  -52.3493  -26.8109 N   0  0  0  0  0  0  0  0  0  0  0  0
   -1.8720  -52.6769  -27.1427 N   0  0  0  0  0  0  0  0  0  0  0  0
   -3.0060  -52.3260  -27.6047 N   0  0  0  0  0  0  0  0  0  0  0  0
 12 13  1  0  0  0
 13 14  1  0  0  0
 13 15  1  0  0  0
 15 16  2  0  0  0
 16 17  2  0  0  0
 13  1  1  0  0  0
  1  2  2  0  0  0
  2  3  1  0  0  0
  3  4  2  0  0  0
  4  8  1  0  0  0
  8  9  1  0  0  0
  8 10  1  0  0  0
  8 11  1  0  0  0
  4  5  1  0  0  0
  5  6  2  0  0  0
  6  7  1  0  0  0
  6  1  1  0  0  0
M  CHG 1  16   1
M  CHG 1  17  -1
M  END
> <minimizedAffinity>
-7.09209

> <CNNscore>
0.7495716810

> <CNNaffinity>
5.5754213333

> <CNN_VS>
4.1791777611

> <CNNaffinity_variance>
0.5023254156

$$$$
[H]c1c([H])c(C(N=[N+]=[N-])(C([H])([H])[H])C([H])([H])[H])c(Cl)c([H])c1C(F)(F)F


 17 17  0  0  0  0  0  0  0  0999 V2000
    0.1257  -53.5434  -24.2355 C   0  0  0  0  0  0  0  0  0  0  0  0
   -0.5580  -54.5741  -23.5562 C   0  0  0  0  0  0  0  0  0  0  0  0
   -0.7533  -54.3456  -22.2231 C   0  0  0  0  0  0  0  0  0  0  0  0
   -0.3573  -53.2801  -21.4995 C   0  0  0  0  0  0  0  0  0  0  0  0
    0.3334  -52.2552  -22.1933 C   0  0  0  0  0  0  0  0  0  0  0  0
    0.5583  -52.4164  -23.5665 C   0  0  0  0  0  0  0  0  0  0  0  0
    1.4478  -51.1451  -24.4282 Cl  0  0  0  0  0  0  0  0  0  0  0  0
   -0.6242  -53.0796  -20.0511 C   0  0  0  0  0  0  0  0  0  0  0  0
    0.3277  -53.6995  -19.2443 F   0  0  0  0  0  0  0  0  0  0  0  0
   -1.8849  -53.4449  -19.7136 F   0  0  0  0  0  0  0  0  0  0  0  0
   -0.4843  -51.7271  -19.7090 F   0  0  0  0  0  0  0  0  0  0  0  0
   -0.1125  -55.0618  -26.1695 C   0  0  0  0  0  0  0  0  0  0  0  0
    0.2992  -53.6226  -25.7116 C   0  0  0  0  0  0  0  0  0  0  0  0
   -0.5694  -52.6895  -26.4790 C   0  0  0  0  0  0  0  0  0  0  0  0
    1.6815  -53.4485  -26.0912 N   0  0  0  0  0  0  0  0  0  0  0  0
    1.9998  -53.5147  -27.2555 N   0  0  0  0  0  0  0  0  0  0  0  0
    2.9278  -53.4425  -28.1251 N   0  0  0  0  0  0  0  0  0  0  0  0
 12 13  1  0  0  0
 13 14  1  0  0  0
 13 15  1  0  0  0
 15 16  2  0  0  0
 16 17  2  0  0  0
 13  1  1  0  0  0
  1  2  2  0  0  0
  2  3  1  0  0  0
  3  4  2  0  0  0
  4  8  1  0  0  0
  8  9  1  0  0  0
  8 10  1  0  0  0
  8 11  1  0  0  0
  4  5  1  0  0  0
  5  6  2  0  0  0
  6  7  1  0  0  0
  6  1  1  0  0  0
M  CHG 1  16   1
M  CHG 1  17  -1
M  END
> <minimizedAffinity>
-6.80486

> <CNNscore>
0.7424879074

> <CNNaffinity>
5.5954494476

> <CNN_VS>
4.1545534134

> <CNNaffinity_variance>
0.2906126976

$$$$
[H]c1c([H])c(C(N=[N+]=[N-])(C([H])([H])[H])C([H])([H])[H])c(Cl)c([H])c1C(F)(F)F


 17 17  0  0  0  0  0  0  0  0999 V2000
   -0.0343  -52.7355  -24.0143 C   0  0  0  0  0  0  0  0  0  0  0  0
    0.5970  -51.5618  -23.5505 C   0  0  0  0  0  0  0  0  0  0  0  0
    0.7997  -51.5199  -22.1998 C   0  0  0  0  0  0  0  0  0  0  0  0
    0.4539  -52.4441  -21.2822 C   0  0  0  0  0  0  0  0  0  0  0  0
   -0.1846  -53.6153  -21.7613 C   0  0  0  0  0  0  0  0  0  0  0  0
   -0.4136  -53.7322  -23.1383 C   0  0  0  0  0  0  0  0  0  0  0  0
   -1.2384  -55.1867  -23.7334 Cl  0  0  0  0  0  0  0  0  0  0  0  0
    0.7266  -52.3492  -19.8241 C   0  0  0  0  0  0  0  0  0  0  0  0
    0.2118  -51.1830  -19.2617 F   0  0  0  0  0  0  0  0  0  0  0  0
    2.0436  -52.5041  -19.5445 F   0  0  0  0  0  0  0  0  0  0  0  0
    0.0395  -53.3552  -19.1300 F   0  0  0  0  0  0  0  0  0  0  0  0
    0.4699  -51.7531  -26.2242 C   0  0  0  0  0  0  0  0  0  0  0  0
   -0.2078  -52.9501  -25.4770 C   0  0  0  0  0  0  0  0  0  0  0  0
    0.4531  -54.1780  -25.9961 C   0  0  0  0  0  0  0  0  0  0  0  0
   -1.6022  -52.9340  -25.8516 N   0  0  0  0  0  0  0  0  0  0  0  0
   -1.9161  -52.7097  -26.9973 N   0  0  0  0  0  0  0  0  0  0  0  0
   -2.8498  -52.5888  -27.8552 N   0  0  0  0  0  0  0  0  0  0  0  0
 12 13  1  0  0  0
 13 14  1  0  0  0
 13 15  1  0  0  0
 15 16  2  0  0  0
 16 17  2  0  0  0
 13  1  1  0  0  0
  1  2  2  0  0  0
  2  3  1  0  0  0
  3  4  2  0  0  0
  4  8  1  0  0  0
  8  9  1  0  0  0
  8 10  1  0  0  0
  8 11  1  0  0  0
  4  5  1  0  0  0
  5  6  2  0  0  0
  6  7  1  0  0  0
  6  1  1  0  0  0
M  CHG 1  16   1
M  CHG 1  17  -1
M  END
> <minimizedAffinity>
-7.06128

> <CNNscore>
0.6920440197

> <CNNaffinity>
5.7079553604

> <CNN_VS>
3.9501564503

> <CNNaffinity_variance>
0.2157091200

$$$$
[H]c1c([H])c(C(N=[N+]=[N-])(C([H])([H])[H])C([H])([H])[H])c(Cl)c([H])c1C(F)(F)F


 17 17  0  0  0  0  0  0  0  0999 V2000
    0.5271  -52.5342  -24.4276 C   0  0  0  0  0  0  0  0  0  0  0  0
    0.8249  -51.5476  -23.4637 C   0  0  0  0  0  0  0  0  0  0  0  0
    0.4933  -51.8855  -22.1818 C   0  0  0  0  0  0  0  0  0  0  0  0
   -0.0904  -53.0206  -21.7499 C   0  0  0  0  0  0  0  0  0  0  0  0
   -0.3893  -54.0003  -22.7295 C   0  0  0  0  0  0  0  0  0  0  0  0
   -0.0651  -53.7268  -24.0646 C   0  0  0  0  0  0  0  0  0  0  0  0
   -0.4655  -54.9429  -25.2937 Cl  0  0  0  0  0  0  0  0  0  0  0  0
   -0.4033  -53.3386  -20.3320 C   0  0  0  0  0  0  0  0  0  0  0  0
   -1.6075  -54.0258  -20.1946 F   0  0  0  0  0  0  0  0  0  0  0  0
   -0.3600  -52.2363  -19.5448 F   0  0  0  0  0  0  0  0  0  0  0  0
    0.5309  -54.2477  -19.8155 F   0  0  0  0  0  0  0  0  0  0  0  0
   -0.3471  -52.1058  -26.6981 C   0  0  0  0  0  0  0  0  0  0  0  0
    0.9438  -52.3318  -25.8421 C   0  0  0  0  0  0  0  0  0  0  0  0
    1.7916  -51.1289  -26.0622 C   0  0  0  0  0  0  0  0  0  0  0  0
    1.5918  -53.5070  -26.3753 N   0  0  0  0  0  0  0  0  0  0  0  0
    1.8411  -53.5745  -27.5562 N   0  0  0  0  0  0  0  0  0  0  0  0
    2.3482  -54.2434  -28.5143 N   0  0  0  0  0  0  0  0  0  0  0  0
 12 13  1  0  0  0
 13 14  1  0  0  0
 13 15  1  0  0  0
 15 16  2  0  0  0
 16 17  2  0  0  0
 13  1  1  0  0  0
  1  2  2  0  0  0
  2  3  1  0  0  0
  3  4  2  0  0  0
  4  8  1  0  0  0
  8  9  1  0  0  0
  8 10  1  0  0  0
  8 11  1  0  0  0
  4  5  1  0  0  0
  5  6  2  0  0  0
  6  7  1  0  0  0
  6  1  1  0  0  0
M  CHG 1  16   1
M  CHG 1  17  -1
M  END
> <minimizedAffinity>
-6.96871

> <CNNscore>
0.6579944491

> <CNNaffinity>
5.5651445389

> <CNN_VS>
3.6618342400

> <CNNaffinity_variance>
0.1938881129

$$$$
[H]c1c([H])c(C(N=[N+]=[N-])(C([H])([H])[H])C([H])([H])[H])c(Cl)c([H])c1C(F)(F)F


 17 17  0  0  0  0  0  0  0  0999 V2000
    0.2038  -52.8787  -23.1510 C   0  0  0  0  0  0  0  0  0  0  0  0
    0.9235  -51.8748  -23.8332 C   0  0  0  0  0  0  0  0  0  0  0  0
    0.8728  -51.9640  -25.1959 C   0  0  0  0  0  0  0  0  0  0  0  0
    0.2433  -52.8934  -25.9414 C   0  0  0  0  0  0  0  0  0  0  0  0
   -0.4707  -53.8990  -25.2431 C   0  0  0  0  0  0  0  0  0  0  0  0
   -0.4729  -53.8627  -23.8428 C   0  0  0  0  0  0  0  0  0  0  0  0
   -1.3442  -55.1387  -22.9695 Cl  0  0  0  0  0  0  0  0  0  0  0  0
    0.2057  -52.9199  -27.4271 C   0  0  0  0  0  0  0  0  0  0  0  0
   -0.8034  -52.1126  -27.9479 F   0  0  0  0  0  0  0  0  0  0  0  0
    0.1374  -54.1848  -27.9089 F   0  0  0  0  0  0  0  0  0  0  0  0
    1.3676  -52.3417  -27.9577 F   0  0  0  0  0  0  0  0  0  0  0  0
   -1.3357  -52.2789  -21.3144 C   0  0  0  0  0  0  0  0  0  0  0  0
    0.0885  -52.8239  -21.6681 C   0  0  0  0  0  0  0  0  0  0  0  0
    0.1930  -54.1487  -20.9986 C   0  0  0  0  0  0  0  0  0  0  0  0
    1.0381  -51.8973  -21.0981 N   0  0  0  0  0  0  0  0  0  0  0  0
    1.8255  -52.2780  -20.2637 N   0  0  0  0  0  0  0  0  0  0  0  0
    2.7985  -51.9958  -19.4915 N   0  0  0  0  0  0  0  0  0  0  0  0
 12 13  1  0  0  0
 13 14  1  0  0  0
 13 15  1  0  0  0
 15 16  2  0  0  0
 16 17  2  0  0  0
 13  1  1  0  0  0
  1  2  2  0  0  0
  2  3  1  0  0  0
  3  4  2  0  0  0
  4  8  1  0  0  0
  8  9  1  0  0  0
  8 10  1  0  0  0
  8 11  1  0  0  0
  4  5  1  0  0  0
  5  6  2  0  0  0
  6  7  1  0  0  0
  6  1  1  0  0  0
M  CHG 1  16   1
M  CHG 1  17  -1
M  END
> <minimizedAffinity>
-6.43639

> <CNNscore>
0.6381566525

> <CNNaffinity>
5.5167193413

> <CNN_VS>
3.5205311775

> <CNNaffinity_variance>
0.5546571016

$$$$
[H]c1c([H])c(C(N=[N+]=[N-])(C([H])([H])[H])C([H])([H])[H])c(Cl)c([H])c1C(F)(F)F


 17 17  0  0  0  0  0  0  0  0999 V2000
    0.4946  -53.0986  -24.6128 C   0  0  0  0  0  0  0  0  0  0  0  0
   -0.6230  -53.8818  -24.2540 C   0  0  0  0  0  0  0  0  0  0  0  0
   -0.8175  -54.0136  -22.9078 C   0  0  0  0  0  0  0  0  0  0  0  0
   -0.0670  -53.5071  -21.9099 C   0  0  0  0  0  0  0  0  0  0  0  0
    1.0557  -52.7273  -22.2846 C   0  0  0  0  0  0  0  0  0  0  0  0
    1.3093  -52.5392  -23.6494 C   0  0  0  0  0  0  0  0  0  0  0  0
    2.7314  -51.5860  -24.1171 Cl  0  0  0  0  0  0  0  0  0  0  0  0
   -0.3481  -53.6668  -20.4590 C   0  0  0  0  0  0  0  0  0  0  0  0
    0.6412  -54.3961  -19.8029 F   0  0  0  0  0  0  0  0  0  0  0  0
   -1.5827  -54.1794  -20.2363 F   0  0  0  0  0  0  0  0  0  0  0  0
   -0.2972  -52.4250  -19.8099 F   0  0  0  0  0  0  0  0  0  0  0  0
   -0.5551  -53.1222  -26.8489 C   0  0  0  0  0  0  0  0  0  0  0  0
    0.7464  -52.7871  -26.0463 C   0  0  0  0  0  0  0  0  0  0  0  0
    1.0318  -51.3523  -26.3179 C   0  0  0  0  0  0  0  0  0  0  0  0
    1.7931  -53.6190  -26.5917 N   0  0  0  0  0  0  0  0  0  0  0  0
    1.7917  -53.8956  -27.7685 N   0  0  0  0  0  0  0  0  0  0  0  0
    2.3670  -54.4911  -28.7365 N   0  0  0  0  0  0  0  0  0  0  0  0
 12 13  1  0  0  0
 13 14  1  0  0  0
 13 15  1  0  0  0
 15 16  2  0  0  0
 16 17  2  0  0  0
 13  1  1  0  0  0
  1  2  2  0  0  0
  2  3  1  0  0  0
  3  4  2  0  0  0
  4  8  1  0  0  0
  8  9  1  0  0  0
  8 10  1  0  0  0
  8 11  1  0  0  0
  4  5  1  0  0  0
  5  6  2  0  0  0
  6  7  1  0  0  0
  6  1  1  0  0  0
M  CHG 1  16   1
M  CHG 1  17  -1
M  END
> <minimizedAffinity>
-6.87560

> <CNNscore>
0.6114546061

> <CNNaffinity>
5.4880800247

> <CNN_VS>
3.3557116985

> <CNNaffinity_variance>
0.2479715645

$$$$
[H]c1c([H])c(C(N=[N+]=[N-])(C([H])([H])[H])C([H])([H])[H])c(Cl)c([H])c1C(F)(F)F


 17 17  0  0  0  0  0  0  0  0999 V2000
    1.2917  -52.9072  -25.8939 C   0  0  0  0  0  0  0  0  0  0  0  0
    2.5799  -53.0351  -25.3321 C   0  0  0  0  0  0  0  0  0  0  0  0
    2.6870  -52.5876  -24.0454 C   0  0  0  0  0  0  0  0  0  0  0  0
    1.7269  -52.0332  -23.2795 C   0  0  0  0  0  0  0  0  0  0  0  0
    0.4395  -51.9055  -23.8584 C   0  0  0  0  0  0  0  0  0  0  0  0
    0.2530  -52.3556  -25.1717 C   0  0  0  0  0  0  0  0  0  0  0  0
   -1.3526  -52.1693  -25.9048 Cl  0  0  0  0  0  0  0  0  0  0  0  0
    1.9025  -51.5882  -21.8722 C   0  0  0  0  0  0  0  0  0  0  0  0
    1.1022  -50.4920  -21.5575 F   0  0  0  0  0  0  0  0  0  0  0  0
    3.2047  -51.3638  -21.5712 F   0  0  0  0  0  0  0  0  0  0  0  0
    1.4408  -52.5714  -20.9855 F   0  0  0  0  0  0  0  0  0  0  0  0
    0.1894  -54.7775  -27.0728 C   0  0  0  0  0  0  0  0  0  0  0  0
    1.0200  -53.4622  -27.2479 C   0  0  0  0  0  0  0  0  0  0  0  0
    0.1981  -52.5768  -28.1166 C   0  0  0  0  0  0  0  0  0  0  0  0
    2.2420  -53.8327  -27.9221 N   0  0  0  0  0  0  0  0  0  0  0  0
    2.2185  -54.6650  -28.7985 N   0  0  0  0  0  0  0  0  0  0  0  0
    2.8652  -55.3279  -29.6731 N   0  0  0  0  0  0  0  0  0  0  0  0
 12 13  1  0  0  0
 13 14  1  0  0  0
 13 15  1  0  0  0
 15 16  2  0  0  0
 16 17  2  0  0  0
 13  1  1  0  0  0
  1  2  2  0  0  0
  2  3  1  0  0  0
  3  4  2  0  0  0
  4  8  1  0  0  0
  8  9  1  0  0  0
  8 10  1  0  0  0
  8 11  1  0  0  0
  4  5  1  0  0  0
  5  6  2  0  0  0
  6  7  1  0  0  0
  6  1  1  0  0  0
M  CHG 1  16   1
M  CHG 1  17  -1
M  END
> <minimizedAffinity>
-6.37107

> <CNNscore>
0.5846788883

> <CNNaffinity>
5.6291284561

> <CNN_VS>
3.2912325859

> <CNNaffinity_variance>
0.2616310716

$$$$
[H]c1c([H])c(C(N=[N+]=[N-])(C([H])([H])[H])C([H])([H])[H])c(Cl)c([H])c1C(F)(F)F


 17 17  0  0  0  0  0  0  0  0999 V2000
    0.4190  -52.2920  -23.7704 C   0  0  0  0  0  0  0  0  0  0  0  0
    1.0652  -51.1438  -23.2651 C   0  0  0  0  0  0  0  0  0  0  0  0
    1.0648  -51.0435  -21.9023 C   0  0  0  0  0  0  0  0  0  0  0  0
    0.5119  -51.8889  -21.0105 C   0  0  0  0  0  0  0  0  0  0  0  0
   -0.1389  -53.0349  -21.5322 C   0  0  0  0  0  0  0  0  0  0  0  0
   -0.1665  -53.2095  -22.9218 C   0  0  0  0  0  0  0  0  0  0  0  0
   -1.0060  -54.6303  -23.5746 Cl  0  0  0  0  0  0  0  0  0  0  0  0
    0.5686  -51.7350  -19.5332 C   0  0  0  0  0  0  0  0  0  0  0  0
   -0.1810  -52.7035  -18.8686 F   0  0  0  0  0  0  0  0  0  0  0  0
    0.2323  -50.4819  -19.1418 F   0  0  0  0  0  0  0  0  0  0  0  0
    1.8679  -51.9757  -19.0643 F   0  0  0  0  0  0  0  0  0  0  0  0
   -1.0208  -52.5355  -25.7630 C   0  0  0  0  0  0  0  0  0  0  0  0
    0.4512  -52.5725  -25.2318 C   0  0  0  0  0  0  0  0  0  0  0  0
    1.1957  -51.5619  -26.0308 C   0  0  0  0  0  0  0  0  0  0  0  0
    0.9550  -53.8981  -25.5044 N   0  0  0  0  0  0  0  0  0  0  0  0
    0.4524  -54.5662  -26.3776 N   0  0  0  0  0  0  0  0  0  0  0  0
    0.4498  -55.6588  -27.0324 N   0  0  0  0  0  0  0  0  0  0  0  0
 12 13  1  0  0  0
 13 14  1  0  0  0
 13 15  1  0  0  0
 15 16  2  0  0  0
 16 17  2  0  0  0
 13  1  1  0  0  0
  1  2  2  0  0  0
  2  3  1  0  0  0
  3  4  2  0  0  0
  4  8  1  0  0  0
  8  9  1  0  0  0
  8 10  1  0  0  0
  8 11  1  0  0  0
  4  5  1  0  0  0
  5  6  2  0  0  0
  6  7  1  0  0  0
  6  1  1  0  0  0
M  CHG 1  16   1
M  CHG 1  17  -1
M  END
> <minimizedAffinity>
-6.51430

> <CNNscore>
0.5834122300

> <CNNaffinity>
5.5182986259

> <CNN_VS>
3.2194428444

> <CNNaffinity_variance>
0.1631518602

$$$$
[H]c1c([H])c(C(N=[N+]=[N-])(C([H])([H])[H])C([H])([H])[H])c(Cl)c([H])c1C(F)(F)F


 17 17  0  0  0  0  0  0  0  0999 V2000
    0.3284  -52.2353  -23.8862 C   0  0  0  0  0  0  0  0  0  0  0  0
    0.8895  -51.3644  -24.8443 C   0  0  0  0  0  0  0  0  0  0  0  0
    0.7098  -51.7534  -26.1419 C   0  0  0  0  0  0  0  0  0  0  0  0
    0.0885  -52.8597  -26.5955 C   0  0  0  0  0  0  0  0  0  0  0  0
   -0.4652  -53.7285  -25.6221 C   0  0  0  0  0  0  0  0  0  0  0  0
   -0.3297  -53.3858  -24.2706 C   0  0  0  0  0  0  0  0  0  0  0  0
   -0.9991  -54.4888  -23.0520 Cl  0  0  0  0  0  0  0  0  0  0  0  0
   -0.0959  -53.2139  -28.0273 C   0  0  0  0  0  0  0  0  0  0  0  0
    0.2138  -54.5469  -28.2893 F   0  0  0  0  0  0  0  0  0  0  0  0
    0.5760  -52.3702  -28.8479 F   0  0  0  0  0  0  0  0  0  0  0  0
   -1.4505  -53.1371  -28.3811 F   0  0  0  0  0  0  0  0  0  0  0  0
    1.2147  -50.5609  -22.3008 C   0  0  0  0  0  0  0  0  0  0  0  0
    0.3586  -51.8634  -22.4453 C   0  0  0  0  0  0  0  0  0  0  0  0
   -0.9749  -51.5374  -21.8713 C   0  0  0  0  0  0  0  0  0  0  0  0
    1.0125  -52.8770  -21.6516 N   0  0  0  0  0  0  0  0  0  0  0  0
    0.5642  -53.1783  -20.5701 N   0  0  0  0  0  0  0  0  0  0  0  0
    0.6547  -53.9101  -19.5315 N   0  0  0  0  0  0  0  0  0  0  0  0
 12 13  1  0  0  0
 13 14  1  0  0  0
 13 15  1  0  0  0
 15 16  2  0  0  0
 16 17  2  0  0  0
 13  1  1  0  0  0
  1  2  2  0  0  0
  2  3  1  0  0  0
  3  4  2  0  0  0
  4  8  1  0  0  0
  8  9  1  0  0  0
  8 10  1  0  0  0
  8 11  1  0  0  0
  4  5  1  0  0  0
  5  6  2  0  0  0
  6  7  1  0  0  0
  6  1  1  0  0  0
M  CHG 1  16   1
M  CHG 1  17  -1
M  END
> <minimizedAffinity>
-5.62206

> <CNNscore>
0.5391631722

> <CNNaffinity>
5.2987475395

> <CNN_VS>
2.8568894863

> <CNNaffinity_variance>
0.4610007703

$$$$
[H]c1c([H])c(C([H])([H])OC([H])([H])C2([H])C([H])([H])C([H])([H])N(C([H])([H])C([H])([H])C([H])([H])C([H])([H])C([H])([H])[H])C([H])([H])C2([H])[H])c([H])c([H])c1F


 21 22  0  0  0  0  0  0  0  0999 V2000
   -0.7172  -53.9372  -24.7382 N   0  0  0  0  0  0  0  0  0  0  0  0
   -0.9700  -55.0719  -23.9402 C   0  0  0  0  0  0  0  0  0  0  0  0
   -1.2380  -54.8484  -22.5017 C   0  0  0  0  0  0  0  0  0  0  0  0
   -0.0901  -54.0140  -21.9462 C   0  0  0  0  0  0  0  0  0  0  0  0
   -0.1898  -52.6891  -22.6701 C   0  0  0  0  0  0  0  0  0  0  0  0
   -0.1685  -52.7900  -24.1456 C   0  0  0  0  0  0  0  0  0  0  0  0
   -0.0590  -54.3630  -25.9463 C   0  0  0  0  0  0  0  0  0  0  0  0
    1.1154  -53.5390  -26.3371 C   0  0  0  0  0  0  0  0  0  0  0  0
    0.9513  -52.9368  -27.7095 C   0  0  0  0  0  0  0  0  0  0  0  0
   -0.6270  -52.7049  -29.5712 C   0  0  0  0  0  0  0  0  0  0  0  0
   -0.4986  -52.7363  -28.0682 C   0  0  0  0  0  0  0  0  0  0  0  0
   -0.2676  -53.7577  -20.4684 C   0  0  0  0  0  0  0  0  0  0  0  0
   -0.6502  -52.4310  -20.2617 O   0  0  0  0  0  0  0  0  0  0  0  0
   -0.0926  -51.9641  -19.0745 C   0  0  0  0  0  0  0  0  0  0  0  0
    0.6464  -50.6987  -19.3710 C   0  0  0  0  0  0  0  0  0  0  0  0
    1.5279  -50.1540  -18.4547 C   0  0  0  0  0  0  0  0  0  0  0  0
    2.2219  -48.9877  -18.7040 C   0  0  0  0  0  0  0  0  0  0  0  0
    2.0559  -48.3150  -19.8972 C   0  0  0  0  0  0  0  0  0  0  0  0
    2.7304  -47.1592  -20.1685 F   0  0  0  0  0  0  0  0  0  0  0  0
    1.1784  -48.8528  -20.8149 C   0  0  0  0  0  0  0  0  0  0  0  0
    0.4777  -50.0291  -20.5649 C   0  0  0  0  0  0  0  0  0  0  0  0
 10 11  1  0  0  0
 11  9  1  0  0  0
  9  8  1  0  0  0
  8  7  1  0  0  0
  7  1  1  0  0  0
  1  2  1  0  0  0
  2  3  1  0  0  0
  3  4  1  0  0  0
  4 12  1  0  0  0
 12 13  1  0  0  0
 13 14  1  0  0  0
 14 15  1  0  0  0
 15 16  2  0  0  0
 16 17  1  0  0  0
 17 18  2  0  0  0
 18 19  1  0  0  0
 18 20  1  0  0  0
 20 21  2  0  0  0
  4  5  1  0  0  0
  5  6  1  0  0  0
  6  1  1  0  0  0
 21 15  1  0  0  0
M  END
> <minimizedAffinity>
-6.26246

> <CNNscore>
0.4000201225

> <CNNaffinity>
5.5651655197

> <CNN_VS>
2.2261781693

> <CNNaffinity_variance>
0.4821876884

$$$$
[H]c1c([H])c(C([H])([H])OC([H])([H])C2([H])C([H])([H])C([H])([H])N(C([H])([H])C([H])([H])C([H])([H])C([H])([H])C([H])([H])[H])C([H])([H])C2([H])[H])c([H])c([H])c1F


 21 22  0  0  0  0  0  0  0  0999 V2000
    3.9337  -50.9122  -24.1619 N   0  0  0  0  0  0  0  0  0  0  0  0
    3.0664  -50.0490  -23.4611 C   0  0  0  0  0  0  0  0  0  0  0  0
    3.3500  -49.8138  -22.0274 C   0  0  0  0  0  0  0  0  0  0  0  0
    3.4555  -51.1758  -21.3519 C   0  0  0  0  0  0  0  0  0  0  0  0
    4.6648  -51.8285  -21.9850 C   0  0  0  0  0  0  0  0  0  0  0  0
    4.6146  -51.9186  -23.4606 C   0  0  0  0  0  0  0  0  0  0  0  0
    3.2685  -51.3585  -25.3588 C   0  0  0  0  0  0  0  0  0  0  0  0
    1.7951  -51.5117  -25.2300 C   0  0  0  0  0  0  0  0  0  0  0  0
    1.3975  -52.9404  -24.9585 C   0  0  0  0  0  0  0  0  0  0  0  0
   -0.6449  -51.9371  -25.8714 C   0  0  0  0  0  0  0  0  0  0  0  0
   -0.0241  -53.2193  -25.3739 C   0  0  0  0  0  0  0  0  0  0  0  0
    3.7191  -51.0314  -19.8718 C   0  0  0  0  0  0  0  0  0  0  0  0
    2.8582  -51.8647  -19.1552 O   0  0  0  0  0  0  0  0  0  0  0  0
    1.5769  -51.3199  -19.1519 C   0  0  0  0  0  0  0  0  0  0  0  0
    0.7184  -52.1387  -20.0618 C   0  0  0  0  0  0  0  0  0  0  0  0
    0.6832  -53.5179  -19.9625 C   0  0  0  0  0  0  0  0  0  0  0  0
   -0.1004  -54.2960  -20.7898 C   0  0  0  0  0  0  0  0  0  0  0  0
   -0.8884  -53.7128  -21.7606 C   0  0  0  0  0  0  0  0  0  0  0  0
   -1.6726  -54.4600  -22.5919 F   0  0  0  0  0  0  0  0  0  0  0  0
   -0.8578  -52.3382  -21.8649 C   0  0  0  0  0  0  0  0  0  0  0  0
   -0.0680  -51.5518  -21.0311 C   0  0  0  0  0  0  0  0  0  0  0  0
 10 11  1  0  0  0
 11  9  1  0  0  0
  9  8  1  0  0  0
  8  7  1  0  0  0
  7  1  1  0  0  0
  1  2  1  0  0  0
  2  3  1  0  0  0
  3  4  1  0  0  0
  4 12  1  0  0  0
 12 13  1  0  0  0
 13 14  1  0  0  0
 14 15  1  0  0  0
 15 16  2  0  0  0
 16 17  1  0  0  0
 17 18  2  0  0  0
 18 19  1  0  0  0
 18 20  1  0  0  0
 20 21  2  0  0  0
  4  5  1  0  0  0
  5  6  1  0  0  0
  6  1  1  0  0  0
 21 15  1  0  0  0
M  END
> <minimizedAffinity>
-5.60982

> <CNNscore>
0.3977759480

> <CNNaffinity>
5.2084031105

> <CNN_VS>
2.0717775822

> <CNNaffinity_variance>
0.5912364721

$$$$
[H]c1c([H])c(C([H])([H])OC([H])([H])C2([H])C([H])([H])C([H])([H])N(C([H])([H])C([H])([H])C([H])([H])C([H])([H])C([H])([H])[H])C([H])([H])C2([H])[H])c([H])c([H])c1F


 21 22  0  0  0  0  0  0  0  0999 V2000
    1.3413  -52.1117  -19.4905 N   0  0  0  0  0  0  0  0  0  0  0  0
    0.2555  -53.0102  -19.5355 C   0  0  0  0  0  0  0  0  0  0  0  0
    0.0242  -53.7378  -20.8037 C   0  0  0  0  0  0  0  0  0  0  0  0
   -0.0562  -52.7014  -21.9182 C   0  0  0  0  0  0  0  0  0  0  0  0
    1.3200  -52.0741  -21.9626 C   0  0  0  0  0  0  0  0  0  0  0  0
    1.7793  -51.5046  -20.6771 C   0  0  0  0  0  0  0  0  0  0  0  0
    1.1412  -51.2047  -18.3897 C   0  0  0  0  0  0  0  0  0  0  0  0
   -0.2094  -51.2677  -17.7709 C   0  0  0  0  0  0  0  0  0  0  0  0
   -0.3396  -50.3245  -16.6020 C   0  0  0  0  0  0  0  0  0  0  0  0
   -2.1832  -51.9056  -16.2668 C   0  0  0  0  0  0  0  0  0  0  0  0
   -1.4386  -50.7424  -15.6593 C   0  0  0  0  0  0  0  0  0  0  0  0
   -0.3186  -53.3562  -23.2537 C   0  0  0  0  0  0  0  0  0  0  0  0
    0.4841  -52.7689  -24.2334 O   0  0  0  0  0  0  0  0  0  0  0  0
   -0.2253  -51.7554  -24.8722 C   0  0  0  0  0  0  0  0  0  0  0  0
   -0.4226  -52.1513  -26.3003 C   0  0  0  0  0  0  0  0  0  0  0  0
   -1.6906  -52.2869  -26.8361 C   0  0  0  0  0  0  0  0  0  0  0  0
   -1.8996  -52.6510  -28.1506 C   0  0  0  0  0  0  0  0  0  0  0  0
   -0.8309  -52.8962  -28.9881 C   0  0  0  0  0  0  0  0  0  0  0  0
   -1.0104  -53.2579  -30.2925 F   0  0  0  0  0  0  0  0  0  0  0  0
    0.4359  -52.7628  -28.4601 C   0  0  0  0  0  0  0  0  0  0  0  0
    0.6484  -52.3956  -27.1344 C   0  0  0  0  0  0  0  0  0  0  0  0
 10 11  1  0  0  0
 11  9  1  0  0  0
  9  8  1  0  0  0
  8  7  1  0  0  0
  7  1  1  0  0  0
  1  2  1  0  0  0
  2  3  1  0  0  0
  3  4  1  0  0  0
  4 12  1  0  0  0
 12 13  1  0  0  0
 13 14  1  0  0  0
 14 15  1  0  0  0
 15 16  2  0  0  0
 16 17  1  0  0  0
 17 18  2  0  0  0
 18 19  1  0  0  0
 18 20  1  0  0  0
 20 21  2  0  0  0
  4  5  1  0  0  0
  5  6  1  0  0  0
  6  1  1  0  0  0
 21 15  1  0  0  0
M  END
> <minimizedAffinity>
-6.24264

> <CNNscore>
0.3625457585

> <CNNaffinity>
5.3442111015

> <CNN_VS>
1.9375211000

> <CNNaffinity_variance>
0.0517761335

$$$$
[H]c1c([H])c(C([H])([H])OC([H])([H])C2([H])C([H])([H])C([H])([H])N(C([H])([H])C([H])([H])C([H])([H])C([H])([H])C([H])([H])[H])C([H])([H])C2([H])[H])c([H])c([H])c1F


 21 22  0  0  0  0  0  0  0  0999 V2000
    2.7629  -50.5044  -21.5818 N   0  0  0  0  0  0  0  0  0  0  0  0
    3.6828  -51.5696  -21.6680 C   0  0  0  0  0  0  0  0  0  0  0  0
    4.2199  -51.9004  -23.0071 C   0  0  0  0  0  0  0  0  0  0  0  0
    3.0318  -52.1058  -23.9392 C   0  0  0  0  0  0  0  0  0  0  0  0
    2.3561  -50.7537  -24.0078 C   0  0  0  0  0  0  0  0  0  0  0  0
    1.9696  -50.1908  -22.6957 C   0  0  0  0  0  0  0  0  0  0  0  0
    2.0389  -50.6224  -20.3424 C   0  0  0  0  0  0  0  0  0  0  0  0
    0.6733  -51.1962  -20.4732 C   0  0  0  0  0  0  0  0  0  0  0  0
    0.6367  -52.6571  -20.1027 C   0  0  0  0  0  0  0  0  0  0  0  0
   -0.3327  -51.8731  -17.9916 C   0  0  0  0  0  0  0  0  0  0  0  0
   -0.4019  -52.9465  -19.0498 C   0  0  0  0  0  0  0  0  0  0  0  0
    3.4880  -52.4753  -25.3308 C   0  0  0  0  0  0  0  0  0  0  0  0
    2.5445  -53.3115  -25.9307 O   0  0  0  0  0  0  0  0  0  0  0  0
    2.3433  -52.9166  -27.2506 C   0  0  0  0  0  0  0  0  0  0  0  0
    0.8723  -52.7736  -27.4767 C   0  0  0  0  0  0  0  0  0  0  0  0
    0.3257  -52.9171  -28.7391 C   0  0  0  0  0  0  0  0  0  0  0  0
   -1.0281  -52.7900  -28.9743 C   0  0  0  0  0  0  0  0  0  0  0  0
   -1.8959  -52.5104  -27.9387 C   0  0  0  0  0  0  0  0  0  0  0  0
   -3.2394  -52.3796  -28.1446 F   0  0  0  0  0  0  0  0  0  0  0  0
   -1.3572  -52.3660  -26.6776 C   0  0  0  0  0  0  0  0  0  0  0  0
    0.0081  -52.4940  -26.4388 C   0  0  0  0  0  0  0  0  0  0  0  0
 10 11  1  0  0  0
 11  9  1  0  0  0
  9  8  1  0  0  0
  8  7  1  0  0  0
  7  1  1  0  0  0
  1  2  1  0  0  0
  2  3  1  0  0  0
  3  4  1  0  0  0
  4 12  1  0  0  0
 12 13  1  0  0  0
 13 14  1  0  0  0
 14 15  1  0  0  0
 15 16  2  0  0  0
 16 17  1  0  0  0
 17 18  2  0  0  0
 18 19  1  0  0  0
 18 20  1  0  0  0
 20 21  2  0  0  0
  4  5  1  0  0  0
  5  6  1  0  0  0
  6  1  1  0  0  0
 21 15  1  0  0  0
M  END
> <minimizedAffinity>
-6.22885

> <CNNscore>
0.3590758145

> <CNNaffinity>
5.5041289330

> <CNN_VS>
1.9763995409

> <CNNaffinity_variance>
0.3753064275

$$$$
[H]c1c([H])c(C([H])([H])OC([H])([H])C2([H])C([H])([H])C([H])([H])N(C([H])([H])C([H])([H])C([H])([H])C([H])([H])C([H])([H])[H])C([H])([H])C2([H])[H])c([H])c([H])c1F


 21 22  0  0  0  0  0  0  0  0999 V2000
   -0.0543  -53.0470  -19.4228 N   0  0  0  0  0  0  0  0  0  0  0  0
   -1.2468  -53.5285  -20.0011 C   0  0  0  0  0  0  0  0  0  0  0  0
   -1.1625  -54.0959  -21.3657 C   0  0  0  0  0  0  0  0  0  0  0  0
   -0.4860  -53.0574  -22.2526 C   0  0  0  0  0  0  0  0  0  0  0  0
    0.9141  -52.9257  -21.6944 C   0  0  0  0  0  0  0  0  0  0  0  0
    0.9746  -52.5840  -20.2566 C   0  0  0  0  0  0  0  0  0  0  0  0
   -0.3947  -52.1609  -18.3396 C   0  0  0  0  0  0  0  0  0  0  0  0
    0.3425  -50.8696  -18.3386 C   0  0  0  0  0  0  0  0  0  0  0  0
    0.9875  -50.5886  -17.0053 C   0  0  0  0  0  0  0  0  0  0  0  0
    3.3858  -50.8388  -16.5615 C   0  0  0  0  0  0  0  0  0  0  0  0
    2.3362  -49.9334  -17.1576 C   0  0  0  0  0  0  0  0  0  0  0  0
   -0.3807  -53.5438  -23.6786 C   0  0  0  0  0  0  0  0  0  0  0  0
    0.5561  -52.7749  -24.3718 O   0  0  0  0  0  0  0  0  0  0  0  0
   -0.0870  -51.7144  -25.0044 C   0  0  0  0  0  0  0  0  0  0  0  0
   -0.4074  -52.1299  -26.4043 C   0  0  0  0  0  0  0  0  0  0  0  0
    0.5931  -52.4777  -27.2938 C   0  0  0  0  0  0  0  0  0  0  0  0
    0.3238  -52.8646  -28.5907 C   0  0  0  0  0  0  0  0  0  0  0  0
   -0.9760  -52.9179  -29.0504 C   0  0  0  0  0  0  0  0  0  0  0  0
   -1.2693  -53.2973  -30.3288 F   0  0  0  0  0  0  0  0  0  0  0  0
   -1.9782  -52.5723  -28.1686 C   0  0  0  0  0  0  0  0  0  0  0  0
   -1.7082  -52.1819  -26.8601 C   0  0  0  0  0  0  0  0  0  0  0  0
 10 11  1  0  0  0
 11  9  1  0  0  0
  9  8  1  0  0  0
  8  7  1  0  0  0
  7  1  1  0  0  0
  1  2  1  0  0  0
  2  3  1  0  0  0
  3  4  1  0  0  0
  4 12  1  0  0  0
 12 13  1  0  0  0
 13 14  1  0  0  0
 14 15  1  0  0  0
 15 16  2  0  0  0
 16 17  1  0  0  0
 17 18  2  0  0  0
 18 19  1  0  0  0
 18 20  1  0  0  0
 20 21  2  0  0  0
  4  5  1  0  0  0
  5  6  1  0  0  0
  6  1  1  0  0  0
 21 15  1  0  0  0
M  END
> <minimizedAffinity>
-6.26587

> <CNNscore>
0.3394740522

> <CNNaffinity>
5.3176226616

> <CNN_VS>
1.8051948547

> <CNNaffinity_variance>
0.1223363057

$$$$
[H]c1c([H])c(C([H])([H])OC([H])([H])C2([H])C([H])([H])C([H])([H])N(C([H])([H])C([H])([H])C([H])([H])C([H])([H])C([H])([H])[H])C([H])([H])C2([H])[H])c([H])c([H])c1F


 21 22  0  0  0  0  0  0  0  0999 V2000
    3.1691  -52.2276  -26.4408 N   0  0  0  0  0  0  0  0  0  0  0  0
    2.9056  -50.8494  -26.5801 C   0  0  0  0  0  0  0  0  0  0  0  0
    3.2493  -49.9705  -25.4397 C   0  0  0  0  0  0  0  0  0  0  0  0
    2.5809  -50.5487  -24.1981 C   0  0  0  0  0  0  0  0  0  0  0  0
    3.2448  -51.8927  -23.9923 C   0  0  0  0  0  0  0  0  0  0  0  0
    3.1765  -52.7988  -25.1594 C   0  0  0  0  0  0  0  0  0  0  0  0
    2.3869  -52.9452  -27.4142 C   0  0  0  0  0  0  0  0  0  0  0  0
    0.9316  -52.6410  -27.3877 C   0  0  0  0  0  0  0  0  0  0  0  0
    0.1435  -53.7124  -26.6778 C   0  0  0  0  0  0  0  0  0  0  0  0
   -0.6563  -51.6934  -25.5399 C   0  0  0  0  0  0  0  0  0  0  0  0
   -0.5183  -53.1917  -25.4279 C   0  0  0  0  0  0  0  0  0  0  0  0
    2.8575  -49.6958  -22.9827 C   0  0  0  0  0  0  0  0  0  0  0  0
    1.6743  -49.4902  -22.2708 O   0  0  0  0  0  0  0  0  0  0  0  0
    1.7880  -50.0552  -21.0034 C   0  0  0  0  0  0  0  0  0  0  0  0
    0.9141  -51.2672  -20.9517 C   0  0  0  0  0  0  0  0  0  0  0  0
    1.2480  -52.3565  -20.1675 C   0  0  0  0  0  0  0  0  0  0  0  0
    0.4589  -53.4866  -20.1024 C   0  0  0  0  0  0  0  0  0  0  0  0
   -0.7100  -53.5679  -20.8308 C   0  0  0  0  0  0  0  0  0  0  0  0
   -1.5085  -54.6745  -20.7841 F   0  0  0  0  0  0  0  0  0  0  0  0
   -1.0486  -52.4852  -21.6148 C   0  0  0  0  0  0  0  0  0  0  0  0
   -0.2537  -51.3446  -21.6816 C   0  0  0  0  0  0  0  0  0  0  0  0
 10 11  1  0  0  0
 11  9  1  0  0  0
  9  8  1  0  0  0
  8  7  1  0  0  0
  7  1  1  0  0  0
  1  2  1  0  0  0
  2  3  1  0  0  0
  3  4  1  0  0  0
  4 12  1  0  0  0
 12 13  1  0  0  0
 13 14  1  0  0  0
 14 15  1  0  0  0
 15 16  2  0  0  0
 16 17  1  0  0  0
 17 18  2  0  0  0
 18 19  1  0  0  0
 18 20  1  0  0  0
 20 21  2  0  0  0
  4  5  1  0  0  0
  5  6  1  0  0  0
  6  1  1  0  0  0
 21 15  1  0  0  0
M  END
> <minimizedAffinity>
-5.50435

> <CNNscore>
0.3350117505

> <CNNaffinity>
5.2221932411

> <CNN_VS>
1.7494961023

> <CNNaffinity_variance>
0.6513925195

$$$$
[H]c1c([H])c(C([H])([H])OC([H])([H])C2([H])C([H])([H])C([H])([H])N(C([H])([H])C([H])([H])C([H])([H])C([H])([H])C([H])([H])[H])C([H])([H])C2([H])[H])c([H])c([H])c1F


 21 22  0  0  0  0  0  0  0  0999 V2000
    2.5919  -50.4574  -21.7720 N   0  0  0  0  0  0  0  0  0  0  0  0
    3.5026  -51.5338  -21.7908 C   0  0  0  0  0  0  0  0  0  0  0  0
    4.1242  -51.8789  -23.0891 C   0  0  0  0  0  0  0  0  0  0  0  0
    2.9988  -52.0761  -24.0977 C   0  0  0  0  0  0  0  0  0  0  0  0
    2.3456  -50.7167  -24.2185 C   0  0  0  0  0  0  0  0  0  0  0  0
    1.8789  -50.1414  -22.9382 C   0  0  0  0  0  0  0  0  0  0  0  0
    1.7851  -50.5595  -20.5834 C   0  0  0  0  0  0  0  0  0  0  0  0
    0.3182  -50.5602  -20.8267 C   0  0  0  0  0  0  0  0  0  0  0  0
   -0.2726  -51.9425  -20.7125 C   0  0  0  0  0  0  0  0  0  0  0  0
   -0.0117  -53.4601  -22.6204 C   0  0  0  0  0  0  0  0  0  0  0  0
   -0.8932  -52.3999  -22.0075 C   0  0  0  0  0  0  0  0  0  0  0  0
    3.5428  -52.4593  -25.4535 C   0  0  0  0  0  0  0  0  0  0  0  0
    2.6137  -53.2539  -26.1278 O   0  0  0  0  0  0  0  0  0  0  0  0
    2.3675  -52.7164  -27.3883 C   0  0  0  0  0  0  0  0  0  0  0  0
    0.8875  -52.6629  -27.5928 C   0  0  0  0  0  0  0  0  0  0  0  0
    0.0313  -52.3684  -26.5472 C   0  0  0  0  0  0  0  0  0  0  0  0
   -1.3379  -52.3129  -26.7097 C   0  0  0  0  0  0  0  0  0  0  0  0
   -1.9074  -52.5538  -27.9431 C   0  0  0  0  0  0  0  0  0  0  0  0
   -3.2590  -52.5052  -28.1305 F   0  0  0  0  0  0  0  0  0  0  0  0
   -1.0593  -52.8481  -28.9897 C   0  0  0  0  0  0  0  0  0  0  0  0
    0.3220  -52.9045  -28.8274 C   0  0  0  0  0  0  0  0  0  0  0  0
 10 11  1  0  0  0
 11  9  1  0  0  0
  9  8  1  0  0  0
  8  7  1  0  0  0
  7  1  1  0  0  0
  1  2  1  0  0  0
  2  3  1  0  0  0
  3  4  1  0  0  0
  4 12  1  0  0  0
 12 13  1  0  0  0
 13 14  1  0  0  0
 14 15  1  0  0  0
 15 16  2  0  0  0
 16 17  1  0  0  0
 17 18  2  0  0  0
 18 19  1  0  0  0
 18 20  1  0  0  0
 20 21  2  0  0  0
  4  5  1  0  0  0
  5  6  1  0  0  0
  6  1  1  0  0  0
 21 15  1  0  0  0
M  END
> <minimizedAffinity>
-6.55722

> <CNNscore>
0.3260908425

> <CNNaffinity>
5.2850904465

> <CNN_VS>
1.7234195471

> <CNNaffinity_variance>
0.5463498831

$$$$
[H]c1c([H])c(C([H])([H])OC([H])([H])C2([H])C([H])([H])C([H])([H])N(C([H])([H])C([H])([H])C([H])([H])C([H])([H])C([H])([H])[H])C([H])([H])C2([H])[H])c([H])c([H])c1F


 21 22  0  0  0  0  0  0  0  0999 V2000
    0.9042  -51.0435  -19.9844 N   0  0  0  0  0  0  0  0  0  0  0  0
    2.0851  -51.8070  -20.0878 C   0  0  0  0  0  0  0  0  0  0  0  0
    2.9548  -51.5628  -21.2605 C   0  0  0  0  0  0  0  0  0  0  0  0
    2.0889  -51.6935  -22.5079 C   0  0  0  0  0  0  0  0  0  0  0  0
    1.0873  -50.5642  -22.4030 C   0  0  0  0  0  0  0  0  0  0  0  0
    0.2987  -50.5544  -21.1516 C   0  0  0  0  0  0  0  0  0  0  0  0
    0.0065  -51.7075  -19.0747 C   0  0  0  0  0  0  0  0  0  0  0  0
   -0.0779  -53.1816  -19.2509 C   0  0  0  0  0  0  0  0  0  0  0  0
   -1.0224  -53.5643  -20.3619 C   0  0  0  0  0  0  0  0  0  0  0  0
   -0.7709  -53.9325  -22.7728 C   0  0  0  0  0  0  0  0  0  0  0  0
   -0.3488  -54.4157  -21.4072 C   0  0  0  0  0  0  0  0  0  0  0  0
    2.9044  -51.4847  -23.7619 C   0  0  0  0  0  0  0  0  0  0  0  0
    2.0793  -51.0274  -24.7911 O   0  0  0  0  0  0  0  0  0  0  0  0
    2.1877  -51.8772  -25.8886 C   0  0  0  0  0  0  0  0  0  0  0  0
    0.8219  -52.0750  -26.4636 C   0  0  0  0  0  0  0  0  0  0  0  0
   -0.3127  -51.7864  -25.7270 C   0  0  0  0  0  0  0  0  0  0  0  0
   -1.5841  -51.9602  -26.2344 C   0  0  0  0  0  0  0  0  0  0  0  0
   -1.7679  -52.4360  -27.5163 C   0  0  0  0  0  0  0  0  0  0  0  0
   -3.0151  -52.6169  -28.0420 F   0  0  0  0  0  0  0  0  0  0  0  0
   -0.6408  -52.7257  -28.2560 C   0  0  0  0  0  0  0  0  0  0  0  0
    0.6423  -52.5510  -27.7456 C   0  0  0  0  0  0  0  0  0  0  0  0
 10 11  1  0  0  0
 11  9  1  0  0  0
  9  8  1  0  0  0
  8  7  1  0  0  0
  7  1  1  0  0  0
  1  2  1  0  0  0
  2  3  1  0  0  0
  3  4  1  0  0  0
  4 12  1  0  0  0
 12 13  1  0  0  0
 13 14  1  0  0  0
 14 15  1  0  0  0
 15 16  2  0  0  0
 16 17  1  0  0  0
 17 18  2  0  0  0
 18 19  1  0  0  0
 18 20  1  0  0  0
 20 21  2  0  0  0
  4  5  1  0  0  0
  5  6  1  0  0  0
  6  1  1  0  0  0
 21 15  1  0  0  0
M  END
> <minimizedAffinity>
-6.19962

> <CNNscore>
0.2704875767

> <CNNaffinity>
5.2966041565

> <CNN_VS>
1.4326655865

> <CNNaffinity_variance>
0.2846488357

$$$$
[H]c1c([H])c(C([H])([H])OC([H])([H])C2([H])C([H])([H])C([H])([H])N(C([H])([H])C([H])([H])C([H])([H])C([H])([H])C([H])([H])[H])C([H])([H])C2([H])[H])c([H])c([H])c1F


 21 22  0  0  0  0  0  0  0  0999 V2000
    0.3097  -51.1830  -19.2847 N   0  0  0  0  0  0  0  0  0  0  0  0
    0.8736  -50.3515  -20.2742 C   0  0  0  0  0  0  0  0  0  0  0  0
    0.7214  -50.7711  -21.6856 C   0  0  0  0  0  0  0  0  0  0  0  0
    1.2320  -52.2028  -21.7955 C   0  0  0  0  0  0  0  0  0  0  0  0
    0.2846  -53.0175  -20.9422 C   0  0  0  0  0  0  0  0  0  0  0  0
    0.1626  -52.5542  -19.5428 C   0  0  0  0  0  0  0  0  0  0  0  0
    0.9236  -50.8720  -18.0195 C   0  0  0  0  0  0  0  0  0  0  0  0
    0.0438  -50.1487  -17.0636 C   0  0  0  0  0  0  0  0  0  0  0  0
   -0.3542  -51.0151  -15.8958 C   0  0  0  0  0  0  0  0  0  0  0  0
   -2.7775  -51.1483  -15.5476 C   0  0  0  0  0  0  0  0  0  0  0  0
   -1.5911  -51.8246  -16.1893 C   0  0  0  0  0  0  0  0  0  0  0  0
    1.1387  -52.7074  -23.2159 C   0  0  0  0  0  0  0  0  0  0  0  0
   -0.1383  -52.4587  -23.7225 O   0  0  0  0  0  0  0  0  0  0  0  0
   -0.6126  -53.5957  -24.3712 C   0  0  0  0  0  0  0  0  0  0  0  0
   -0.4762  -53.3844  -25.8449 C   0  0  0  0  0  0  0  0  0  0  0  0
    0.3867  -54.1567  -26.6012 C   0  0  0  0  0  0  0  0  0  0  0  0
    0.5309  -53.9817  -27.9624 C   0  0  0  0  0  0  0  0  0  0  0  0
   -0.1944  -53.0129  -28.6249 C   0  0  0  0  0  0  0  0  0  0  0  0
   -0.0702  -52.8193  -29.9708 F   0  0  0  0  0  0  0  0  0  0  0  0
   -1.0565  -52.2394  -27.8766 C   0  0  0  0  0  0  0  0  0  0  0  0
   -1.2031  -52.4147  -26.5036 C   0  0  0  0  0  0  0  0  0  0  0  0
 10 11  1  0  0  0
 11  9  1  0  0  0
  9  8  1  0  0  0
  8  7  1  0  0  0
  7  1  1  0  0  0
  1  2  1  0  0  0
  2  3  1  0  0  0
  3  4  1  0  0  0
  4 12  1  0  0  0
 12 13  1  0  0  0
 13 14  1  0  0  0
 14 15  1  0  0  0
 15 16  2  0  0  0
 16 17  1  0  0  0
 17 18  2  0  0  0
 18 19  1  0  0  0
 18 20  1  0  0  0
 20 21  2  0  0  0
  4  5  1  0  0  0
  5  6  1  0  0  0
  6  1  1  0  0  0
 21 15  1  0  0  0
M  END
> <minimizedAffinity>
-6.14555

> <CNNscore>
0.2684986293

> <CNNaffinity>
5.1487722397

> <CNN_VS>
1.3824383020

> <CNNaffinity_variance>
0.1701322496

$$$$
[H]c1c([H])c([H])c([C@@]2([H])C([H])([H])[C@]2([H])N([H])C([H])([H])C2([H])C([H])([H])C([H])([H])N([H])C([H])([H])C2([H])[H])c([H])c1[H]


 19 21  0  0  0  0  0  0  0  0999 V2000
   -0.8157  -54.3586  -23.2096 N   0  0  0  0  0  0  0  0  0  0  0  0
   -0.5843  -55.3595  -23.3122 H   0  0  0  0  0  0  0  0  0  0  0  0
    0.1693  -54.1465  -25.5544 C   0  0  0  0  0  0  0  0  0  0  0  0
    0.9233  -53.2495  -24.5678 C   0  0  0  0  0  0  0  0  0  0  0  0
   -0.5654  -53.5726  -24.4019 C   0  0  0  0  0  0  0  0  0  0  0  0
   -0.9135  -52.4870  -29.3772 C   0  0  0  0  0  0  0  0  0  0  0  0
   -1.7500  -52.3939  -28.2850 C   0  0  0  0  0  0  0  0  0  0  0  0
   -1.3775  -52.9396  -27.0554 C   0  0  0  0  0  0  0  0  0  0  0  0
   -0.1779  -53.5843  -26.8817 C   0  0  0  0  0  0  0  0  0  0  0  0
    0.6538  -53.6737  -27.9784 C   0  0  0  0  0  0  0  0  0  0  0  0
    0.2887  -53.1320  -29.2073 C   0  0  0  0  0  0  0  0  0  0  0  0
   -0.0992  -53.7139  -22.1285 C   0  0  0  0  0  0  0  0  0  0  0  0
   -0.9362  -52.7413  -21.3512 C   0  0  0  0  0  0  0  0  0  0  0  0
   -0.2677  -51.3962  -21.3687 C   0  0  0  0  0  0  0  0  0  0  0  0
    1.0274  -51.3367  -20.6262 C   0  0  0  0  0  0  0  0  0  0  0  0
    1.1513  -52.3773  -19.6204 N   0  0  0  0  0  0  0  0  0  0  0  0
   -0.1714  -52.4675  -18.9829 C   0  0  0  0  0  0  0  0  0  0  0  0
   -1.0383  -53.2847  -19.9302 C   0  0  0  0  0  0  0  0  0  0  0  0
    1.8803  -52.1196  -18.9474 H   0  0  0  0  0  0  0  0  0  0  0  0
  6  7  2  0  0  0
  7  8  1  0  0  0
  8  9  2  0  0  0
  9  3  1  0  0  0
  3  4  1  0  0  0
  4  5  1  0  0  0
  5  1  1  0  0  0
  1 12  1  0  0  0
 12 13  1  0  0  0
 13 14  1  0  0  0
 14 15  1  0  0  0
 15 16  1  0  0  0
 16 17  1  0  0  0
 17 18  1  0  0  0
  9 10  1  0  0  0
 10 11  2  0  0  0
 11  6  1  0  0  0
  5  3  1  0  0  0
 18 13  1  0  0  0
  1  2  1  0  0  0
 16 19  1  0  0  0
M  END
> <minimizedAffinity>
-6.46235

> <CNNscore>
0.4415712357

> <CNNaffinity>
5.1435966492

> <CNN_VS>
2.2712643147

> <CNNaffinity_variance>
0.1322315037

$$$$
[H]c1c([H])c([H])c([C@@]2([H])C([H])([H])[C@]2([H])N([H])C([H])([H])C2([H])C([H])([H])C([H])([H])N([H])C([H])([H])C2([H])[H])c([H])c1[H]


 19 21  0  0  0  0  0  0  0  0999 V2000
    1.5658  -51.5104  -23.8086 N   0  0  0  0  0  0  0  0  0  0  0  0
    1.1102  -51.1816  -24.6748 H   0  0  0  0  0  0  0  0  0  0  0  0
    0.6581  -52.5881  -21.6806 C   0  0  0  0  0  0  0  0  0  0  0  0
   -0.4456  -52.4593  -22.7350 C   0  0  0  0  0  0  0  0  0  0  0  0
    0.7107  -51.4583  -22.6389 C   0  0  0  0  0  0  0  0  0  0  0  0
   -0.2509  -51.4701  -17.6231 C   0  0  0  0  0  0  0  0  0  0  0  0
    0.5257  -50.6725  -18.4366 C   0  0  0  0  0  0  0  0  0  0  0  0
    0.8072  -51.0556  -19.7490 C   0  0  0  0  0  0  0  0  0  0  0  0
    0.3294  -52.2278  -20.2805 C   0  0  0  0  0  0  0  0  0  0  0  0
   -0.4467  -53.0208  -19.4612 C   0  0  0  0  0  0  0  0  0  0  0  0
   -0.7311  -52.6450  -18.1517 C   0  0  0  0  0  0  0  0  0  0  0  0
    2.7673  -50.7721  -23.4786 C   0  0  0  0  0  0  0  0  0  0  0  0
    3.8161  -51.6056  -22.8031 C   0  0  0  0  0  0  0  0  0  0  0  0
    4.9437  -50.7146  -22.3663 C   0  0  0  0  0  0  0  0  0  0  0  0
    5.7221  -50.1037  -23.4857 C   0  0  0  0  0  0  0  0  0  0  0  0
    5.6095  -50.8503  -24.7266 N   0  0  0  0  0  0  0  0  0  0  0  0
    5.6783  -52.2680  -24.3401 C   0  0  0  0  0  0  0  0  0  0  0  0
    4.2918  -52.6304  -23.8271 C   0  0  0  0  0  0  0  0  0  0  0  0
    6.3766  -50.5904  -25.3548 H   0  0  0  0  0  0  0  0  0  0  0  0
  6  7  2  0  0  0
  7  8  1  0  0  0
  8  9  2  0  0  0
  9  3  1  0  0  0
  3  4  1  0  0  0
  4  5  1  0  0  0
  5  1  1  0  0  0
  1 12  1  0  0  0
 12 13  1  0  0  0
 13 14  1  0  0  0
 14 15  1  0  0  0
 15 16  1  0  0  0
 16 17  1  0  0  0
 17 18  1  0  0  0
  9 10  1  0  0  0
 10 11  2  0  0  0
 11  6  1  0  0  0
  5  3  1  0  0  0
 18 13  1  0  0  0
  1  2  1  0  0  0
 16 19  1  0  0  0
M  END
> <minimizedAffinity>
-5.29723

> <CNNscore>
0.3509564102

> <CNNaffinity>
4.6827964783

> <CNN_VS>
1.6434574127

> <CNNaffinity_variance>
0.1415312886

$$$$
[H]c1c([H])c([H])c([C@@]2([H])C([H])([H])[C@]2([H])N([H])C([H])([H])C2([H])C([H])([H])C([H])([H])N([H])C([H])([H])C2([H])[H])c([H])c1[H]


 19 21  0  0  0  0  0  0  0  0999 V2000
    0.7732  -53.0393  -24.9685 N   0  0  0  0  0  0  0  0  0  0  0  0
    0.9320  -54.0400  -25.1673 H   0  0  0  0  0  0  0  0  0  0  0  0
    0.4840  -53.6314  -22.5028 C   0  0  0  0  0  0  0  0  0  0  0  0
   -0.8079  -53.9032  -23.2795 C   0  0  0  0  0  0  0  0  0  0  0  0
    0.1629  -52.7866  -23.6779 C   0  0  0  0  0  0  0  0  0  0  0  0
    0.2399  -51.6464  -18.6897 C   0  0  0  0  0  0  0  0  0  0  0  0
    1.2257  -51.3391  -19.6034 C   0  0  0  0  0  0  0  0  0  0  0  0
    1.2849  -51.9960  -20.8337 C   0  0  0  0  0  0  0  0  0  0  0  0
    0.3762  -52.9640  -21.1833 C   0  0  0  0  0  0  0  0  0  0  0  0
   -0.6071  -53.2663  -20.2645 C   0  0  0  0  0  0  0  0  0  0  0  0
   -0.6719  -52.6154  -19.0361 C   0  0  0  0  0  0  0  0  0  0  0  0
   -0.0585  -52.3849  -25.9572 C   0  0  0  0  0  0  0  0  0  0  0  0
   -0.7602  -53.3402  -26.8768 C   0  0  0  0  0  0  0  0  0  0  0  0
    0.2217  -54.3723  -27.3532 C   0  0  0  0  0  0  0  0  0  0  0  0
    1.3003  -53.8409  -28.2400 C   0  0  0  0  0  0  0  0  0  0  0  0
    0.9345  -52.5953  -28.8916 N   0  0  0  0  0  0  0  0  0  0  0  0
   -0.4704  -52.7604  -29.2953 C   0  0  0  0  0  0  0  0  0  0  0  0
   -1.2982  -52.5161  -28.0415 C   0  0  0  0  0  0  0  0  0  0  0  0
    1.5456  -52.4377  -29.6993 H   0  0  0  0  0  0  0  0  0  0  0  0
  6  7  2  0  0  0
  7  8  1  0  0  0
  8  9  2  0  0  0
  9  3  1  0  0  0
  3  4  1  0  0  0
  4  5  1  0  0  0
  5  1  1  0  0  0
  1 12  1  0  0  0
 12 13  1  0  0  0
 13 14  1  0  0  0
 14 15  1  0  0  0
 15 16  1  0  0  0
 16 17  1  0  0  0
 17 18  1  0  0  0
  9 10  1  0  0  0
 10 11  2  0  0  0
 11  6  1  0  0  0
  5  3  1  0  0  0
 18 13  1  0  0  0
  1  2  1  0  0  0
 16 19  1  0  0  0
M  END
> <minimizedAffinity>
-6.27925

> <CNNscore>
0.3373499811

> <CNNaffinity>
5.3601646423

> <CNN_VS>
1.8082515001

> <CNNaffinity_variance>
0.1940413415

$$$$
[H]c1c([H])c([H])c([C@@]2([H])C([H])([H])[C@]2([H])N([H])C([H])([H])C2([H])C([H])([H])C([H])([H])N([H])C([H])([H])C2([H])[H])c([H])c1[H]


 19 21  0  0  0  0  0  0  0  0999 V2000
    2.0988  -52.3575  -25.7564 N   0  0  0  0  0  0  0  0  0  0  0  0
    2.5781  -53.0693  -26.3303 H   0  0  0  0  0  0  0  0  0  0  0  0
    1.1326  -51.8901  -23.4408 C   0  0  0  0  0  0  0  0  0  0  0  0
    2.6520  -52.0699  -23.3668 C   0  0  0  0  0  0  0  0  0  0  0  0
    1.7950  -52.7969  -24.4085 C   0  0  0  0  0  0  0  0  0  0  0  0
   -1.3050  -53.8684  -20.4940 C   0  0  0  0  0  0  0  0  0  0  0  0
   -1.2188  -54.3309  -21.7901 C   0  0  0  0  0  0  0  0  0  0  0  0
   -0.4218  -53.6729  -22.7284 C   0  0  0  0  0  0  0  0  0  0  0  0
    0.3016  -52.5514  -22.4062 C   0  0  0  0  0  0  0  0  0  0  0  0
    0.2106  -52.0945  -21.1080 C   0  0  0  0  0  0  0  0  0  0  0  0
   -0.5821  -52.7455  -20.1675 C   0  0  0  0  0  0  0  0  0  0  0  0
    0.8526  -51.9002  -26.3356 C   0  0  0  0  0  0  0  0  0  0  0  0
   -0.1074  -53.0109  -26.6450 C   0  0  0  0  0  0  0  0  0  0  0  0
    0.6358  -54.1258  -27.3239 C   0  0  0  0  0  0  0  0  0  0  0  0
    1.1528  -53.7894  -28.6847 C   0  0  0  0  0  0  0  0  0  0  0  0
    0.4329  -52.6927  -29.3083 N   0  0  0  0  0  0  0  0  0  0  0  0
   -0.9847  -52.9205  -28.9883 C   0  0  0  0  0  0  0  0  0  0  0  0
   -1.1769  -52.4266  -27.5614 C   0  0  0  0  0  0  0  0  0  0  0  0
    0.6003  -52.7028  -30.3195 H   0  0  0  0  0  0  0  0  0  0  0  0
  6  7  2  0  0  0
  7  8  1  0  0  0
  8  9  2  0  0  0
  9  3  1  0  0  0
  3  4  1  0  0  0
  4  5  1  0  0  0
  5  1  1  0  0  0
  1 12  1  0  0  0
 12 13  1  0  0  0
 13 14  1  0  0  0
 14 15  1  0  0  0
 15 16  1  0  0  0
 16 17  1  0  0  0
 17 18  1  0  0  0
  9 10  1  0  0  0
 10 11  2  0  0  0
 11  6  1  0  0  0
  5  3  1  0  0  0
 18 13  1  0  0  0
  1  2  1  0  0  0
 16 19  1  0  0  0
M  END
> <minimizedAffinity>
-6.75660

> <CNNscore>
0.3281673193

> <CNNaffinity>
5.3684477806

> <CNN_VS>
1.7617491484

> <CNNaffinity_variance>
0.2549664378

$$$$
[H]c1c([H])c([H])c([C@@]2([H])C([H])([H])[C@]2([H])N([H])C([H])([H])C2([H])C([H])([H])C([H])([H])N([H])C([H])([H])C2([H])[H])c([H])c1[H]


 19 21  0  0  0  0  0  0  0  0999 V2000
    1.8679  -51.7570  -23.5820 N   0  0  0  0  0  0  0  0  0  0  0  0
    2.0848  -50.9379  -22.9919 H   0  0  0  0  0  0  0  0  0  0  0  0
    1.1291  -52.2426  -25.9762 C   0  0  0  0  0  0  0  0  0  0  0  0
    1.8499  -50.8934  -25.8956 C   0  0  0  0  0  0  0  0  0  0  0  0
    1.0316  -51.4515  -24.7263 C   0  0  0  0  0  0  0  0  0  0  0  0
   -2.5194  -52.4547  -28.2528 C   0  0  0  0  0  0  0  0  0  0  0  0
   -2.5216  -52.1399  -26.9104 C   0  0  0  0  0  0  0  0  0  0  0  0
   -1.3260  -52.0770  -26.1927 C   0  0  0  0  0  0  0  0  0  0  0  0
   -0.1116  -52.3225  -26.7841 C   0  0  0  0  0  0  0  0  0  0  0  0
   -0.1169  -52.6367  -28.1270 C   0  0  0  0  0  0  0  0  0  0  0  0
   -1.3051  -52.7014  -28.8486 C   0  0  0  0  0  0  0  0  0  0  0  0
    1.2090  -52.8247  -22.8585 C   0  0  0  0  0  0  0  0  0  0  0  0
   -0.2164  -52.5180  -22.5049 C   0  0  0  0  0  0  0  0  0  0  0  0
   -0.2484  -51.7735  -21.2007 C   0  0  0  0  0  0  0  0  0  0  0  0
    0.1878  -52.5746  -20.0174 C   0  0  0  0  0  0  0  0  0  0  0  0
    0.0623  -54.0066  -20.2262 N   0  0  0  0  0  0  0  0  0  0  0  0
   -1.2152  -54.1906  -20.9321 C   0  0  0  0  0  0  0  0  0  0  0  0
   -0.9399  -53.8555  -22.3911 C   0  0  0  0  0  0  0  0  0  0  0  0
    0.0686  -54.4876  -19.3211 H   0  0  0  0  0  0  0  0  0  0  0  0
  6  7  2  0  0  0
  7  8  1  0  0  0
  8  9  2  0  0  0
  9  3  1  0  0  0
  3  4  1  0  0  0
  4  5  1  0  0  0
  5  1  1  0  0  0
  1 12  1  0  0  0
 12 13  1  0  0  0
 13 14  1  0  0  0
 14 15  1  0  0  0
 15 16  1  0  0  0
 16 17  1  0  0  0
 17 18  1  0  0  0
  9 10  1  0  0  0
 10 11  2  0  0  0
 11  6  1  0  0  0
  5  3  1  0  0  0
 18 13  1  0  0  0
  1  2  1  0  0  0
 16 19  1  0  0  0
M  END
> <minimizedAffinity>
-6.83158

> <CNNscore>
0.3250606656

> <CNNaffinity>
5.1193056107

> <CNN_VS>
1.6640849113

> <CNNaffinity_variance>
0.0925130099

$$$$
[H]c1c([H])c([H])c([C@@]2([H])C([H])([H])[C@]2([H])N([H])C([H])([H])C2([H])C([H])([H])C([H])([H])N([H])C([H])([H])C2([H])[H])c([H])c1[H]


 19 21  0  0  0  0  0  0  0  0999 V2000
   -0.9056  -55.2149  -24.7742 N   0  0  0  0  0  0  0  0  0  0  0  0
   -1.7894  -55.3868  -25.2796 H   0  0  0  0  0  0  0  0  0  0  0  0
   -0.2693  -54.5008  -22.4080 C   0  0  0  0  0  0  0  0  0  0  0  0
   -1.7334  -54.9479  -22.4629 C   0  0  0  0  0  0  0  0  0  0  0  0
   -1.0350  -54.2954  -23.6607 C   0  0  0  0  0  0  0  0  0  0  0  0
    0.6791  -50.9778  -20.1213 C   0  0  0  0  0  0  0  0  0  0  0  0
    0.5926  -52.2213  -19.5318 C   0  0  0  0  0  0  0  0  0  0  0  0
    0.2837  -53.3495  -20.2936 C   0  0  0  0  0  0  0  0  0  0  0  0
    0.0555  -53.2716  -21.6452 C   0  0  0  0  0  0  0  0  0  0  0  0
    0.1437  -52.0247  -22.2281 C   0  0  0  0  0  0  0  0  0  0  0  0
    0.4512  -50.8957  -21.4746 C   0  0  0  0  0  0  0  0  0  0  0  0
    0.1466  -54.6950  -25.6228 C   0  0  0  0  0  0  0  0  0  0  0  0
    0.0119  -53.2295  -25.9144 C   0  0  0  0  0  0  0  0  0  0  0  0
   -0.4814  -53.0533  -27.3222 C   0  0  0  0  0  0  0  0  0  0  0  0
    0.4861  -53.4807  -28.3774 C   0  0  0  0  0  0  0  0  0  0  0  0
    1.8624  -53.4897  -27.9129 N   0  0  0  0  0  0  0  0  0  0  0  0
    2.0077  -52.2790  -27.0901 C   0  0  0  0  0  0  0  0  0  0  0  0
    1.3965  -52.6158  -25.7374 C   0  0  0  0  0  0  0  0  0  0  0  0
    2.4968  -53.4800  -28.7180 H   0  0  0  0  0  0  0  0  0  0  0  0
  6  7  2  0  0  0
  7  8  1  0  0  0
  8  9  2  0  0  0
  9  3  1  0  0  0
  3  4  1  0  0  0
  4  5  1  0  0  0
  5  1  1  0  0  0
  1 12  1  0  0  0
 12 13  1  0  0  0
 13 14  1  0  0  0
 14 15  1  0  0  0
 15 16  1  0  0  0
 16 17  1  0  0  0
 17 18  1  0  0  0
  9 10  1  0  0  0
 10 11  2  0  0  0
 11  6  1  0  0  0
  5  3  1  0  0  0
 18 13  1  0  0  0
  1  2  1  0  0  0
 16 19  1  0  0  0
M  END
> <minimizedAffinity>
-6.21843

> <CNNscore>
0.3248208761

> <CNNaffinity>
5.3245201111

> <CNN_VS>
1.7295153141

> <CNNaffinity_variance>
0.2895102501

$$$$
[H]c1c([H])c([H])c([C@@]2([H])C([H])([H])[C@]2([H])N([H])C([H])([H])C2([H])C([H])([H])C([H])([H])N([H])C([H])([H])C2([H])[H])c([H])c1[H]


 19 21  0  0  0  0  0  0  0  0999 V2000
    2.2727  -48.7064  -18.9742 N   0  0  0  0  0  0  0  0  0  0  0  0
    2.2354  -47.6918  -19.1618 H   0  0  0  0  0  0  0  0  0  0  0  0
    1.4489  -50.2993  -20.7901 C   0  0  0  0  0  0  0  0  0  0  0  0
    0.8443  -48.9047  -20.9790 C   0  0  0  0  0  0  0  0  0  0  0  0
    1.1997  -49.4584  -19.5950 C   0  0  0  0  0  0  0  0  0  0  0  0
   -1.1495  -53.7126  -21.1612 C   0  0  0  0  0  0  0  0  0  0  0  0
   -0.7926  -53.2056  -19.9296 C   0  0  0  0  0  0  0  0  0  0  0  0
    0.0513  -52.0978  -19.8340 C   0  0  0  0  0  0  0  0  0  0  0  0
    0.5562  -51.4727  -20.9472 C   0  0  0  0  0  0  0  0  0  0  0  0
    0.1951  -51.9851  -22.1757 C   0  0  0  0  0  0  0  0  0  0  0  0
   -0.6458  -53.0894  -22.2783 C   0  0  0  0  0  0  0  0  0  0  0  0
    2.2434  -49.0284  -17.5624 C   0  0  0  0  0  0  0  0  0  0  0  0
    2.1807  -50.5015  -17.2851 C   0  0  0  0  0  0  0  0  0  0  0  0
    1.2114  -50.7482  -16.1644 C   0  0  0  0  0  0  0  0  0  0  0  0
    1.6451  -50.2124  -14.8389 C   0  0  0  0  0  0  0  0  0  0  0  0
    3.0830  -50.0293  -14.7456 N   0  0  0  0  0  0  0  0  0  0  0  0
    3.6727  -51.2063  -15.4020 C   0  0  0  0  0  0  0  0  0  0  0  0
    3.5896  -50.9375  -16.8979 C   0  0  0  0  0  0  0  0  0  0  0  0
    3.3582  -49.9665  -13.7602 H   0  0  0  0  0  0  0  0  0  0  0  0
  6  7  2  0  0  0
  7  8  1  0  0  0
  8  9  2  0  0  0
  9  3  1  0  0  0
  3  4  1  0  0  0
  4  5  1  0  0  0
  5  1  1  0  0  0
  1 12  1  0  0  0
 12 13  1  0  0  0
 13 14  1  0  0  0
 14 15  1  0  0  0
 15 16  1  0  0  0
 16 17  1  0  0  0
 17 18  1  0  0  0
  9 10  1  0  0  0
 10 11  2  0  0  0
 11  6  1  0  0  0
  5  3  1  0  0  0
 18 13  1  0  0  0
  1  2  1  0  0  0
 16 19  1  0  0  0
M  END
> <minimizedAffinity>
-4.89410

> <CNNscore>
0.3029208779

> <CNNaffinity>
4.0421767235

> <CNN_VS>
1.2244597673

> <CNNaffinity_variance>
0.2152699530

$$$$
[H]c1c([H])c([H])c([C@@]2([H])C([H])([H])[C@]2([H])N([H])C([H])([H])C2([H])C([H])([H])C([H])([H])N([H])C([H])([H])C2([H])[H])c([H])c1[H]


 19 21  0  0  0  0  0  0  0  0999 V2000
    1.5256  -51.7524  -23.2524 N   0  0  0  0  0  0  0  0  0  0  0  0
    2.5525  -51.6524  -23.2903 H   0  0  0  0  0  0  0  0  0  0  0  0
    0.9268  -52.4777  -25.6250 C   0  0  0  0  0  0  0  0  0  0  0  0
    1.8697  -51.2708  -25.6500 C   0  0  0  0  0  0  0  0  0  0  0  0
    0.8634  -51.4956  -24.5164 C   0  0  0  0  0  0  0  0  0  0  0  0
   -2.3839  -52.4975  -28.3779 C   0  0  0  0  0  0  0  0  0  0  0  0
   -1.1061  -52.8236  -28.7807 C   0  0  0  0  0  0  0  0  0  0  0  0
   -0.0482  -52.8103  -27.8701 C   0  0  0  0  0  0  0  0  0  0  0  0
   -0.2311  -52.4764  -26.5510 C   0  0  0  0  0  0  0  0  0  0  0  0
   -1.5117  -52.1514  -26.1551 C   0  0  0  0  0  0  0  0  0  0  0  0
   -2.5710  -52.1625  -27.0577 C   0  0  0  0  0  0  0  0  0  0  0  0
    0.9024  -50.8865  -22.2729 C   0  0  0  0  0  0  0  0  0  0  0  0
    1.8130  -50.5084  -21.1421 C   0  0  0  0  0  0  0  0  0  0  0  0
    2.3244  -51.7589  -20.4857 C   0  0  0  0  0  0  0  0  0  0  0  0
    1.2813  -52.5587  -19.7753 C   0  0  0  0  0  0  0  0  0  0  0  0
    0.1210  -51.7693  -19.4004 N   0  0  0  0  0  0  0  0  0  0  0  0
    0.6567  -50.4858  -18.9214 C   0  0  0  0  0  0  0  0  0  0  0  0
    0.9849  -49.6770  -20.1684 C   0  0  0  0  0  0  0  0  0  0  0  0
   -0.4051  -52.2579  -18.6688 H   0  0  0  0  0  0  0  0  0  0  0  0
  6  7  2  0  0  0
  7  8  1  0  0  0
  8  9  2  0  0  0
  9  3  1  0  0  0
  3  4  1  0  0  0
  4  5  1  0  0  0
  5  1  1  0  0  0
  1 12  1  0  0  0
 12 13  1  0  0  0
 13 14  1  0  0  0
 14 15  1  0  0  0
 15 16  1  0  0  0
 16 17  1  0  0  0
 17 18  1  0  0  0
  9 10  1  0  0  0
 10 11  2  0  0  0
 11  6  1  0  0  0
  5  3  1  0  0  0
 18 13  1  0  0  0
  1  2  1  0  0  0
 16 19  1  0  0  0
M  END
> <minimizedAffinity>
-5.87105

> <CNNscore>
0.2920977175

> <CNNaffinity>
4.8083615303

> <CNN_VS>
1.4045114517

> <CNNaffinity_variance>
0.0630738288

$$$$
[H]c1c([H])c([H])c([C@@]2([H])C([H])([H])[C@]2([H])N([H])C([H])([H])C2([H])C([H])([H])C([H])([H])N([H])C([H])([H])C2([H])[H])c([H])c1[H]


 19 21  0  0  0  0  0  0  0  0999 V2000
    1.1537  -52.5512  -23.0330 N   0  0  0  0  0  0  0  0  0  0  0  0
    1.8682  -53.1482  -22.5868 H   0  0  0  0  0  0  0  0  0  0  0  0
   -0.5834  -52.5450  -24.9027 C   0  0  0  0  0  0  0  0  0  0  0  0
   -0.6282  -53.8651  -24.1271 C   0  0  0  0  0  0  0  0  0  0  0  0
    0.6668  -53.0642  -24.2987 C   0  0  0  0  0  0  0  0  0  0  0  0
   -0.8734  -52.7027  -29.1958 C   0  0  0  0  0  0  0  0  0  0  0  0
   -1.9816  -52.4908  -28.4032 C   0  0  0  0  0  0  0  0  0  0  0  0
   -1.8632  -52.4435  -27.0131 C   0  0  0  0  0  0  0  0  0  0  0  0
   -0.6543  -52.6038  -26.3825 C   0  0  0  0  0  0  0  0  0  0  0  0
    0.4498  -52.8155  -27.1815 C   0  0  0  0  0  0  0  0  0  0  0  0
    0.3390  -52.8639  -28.5680 C   0  0  0  0  0  0  0  0  0  0  0  0
    1.6113  -51.1995  -23.2804 C   0  0  0  0  0  0  0  0  0  0  0  0
    1.2370  -50.2325  -22.1961 C   0  0  0  0  0  0  0  0  0  0  0  0
    2.4858  -49.6005  -21.6507 C   0  0  0  0  0  0  0  0  0  0  0  0
    3.3873  -50.5390  -20.9167 C   0  0  0  0  0  0  0  0  0  0  0  0
    2.6947  -51.7136  -20.4162 N   0  0  0  0  0  0  0  0  0  0  0  0
    1.4071  -51.2218  -19.9023 C   0  0  0  0  0  0  0  0  0  0  0  0
    0.5134  -51.0350  -21.1202 C   0  0  0  0  0  0  0  0  0  0  0  0
    3.2542  -52.1544  -19.6792 H   0  0  0  0  0  0  0  0  0  0  0  0
  6  7  2  0  0  0
  7  8  1  0  0  0
  8  9  2  0  0  0
  9  3  1  0  0  0
  3  4  1  0  0  0
  4  5  1  0  0  0
  5  1  1  0  0  0
  1 12  1  0  0  0
 12 13  1  0  0  0
 13 14  1  0  0  0
 14 15  1  0  0  0
 15 16  1  0  0  0
 16 17  1  0  0  0
 17 18  1  0  0  0
  9 10  1  0  0  0
 10 11  2  0  0  0
 11  6  1  0  0  0
  5  3  1  0  0  0
 18 13  1  0  0  0
  1  2  1  0  0  0
 16 19  1  0  0  0
M  END
> <minimizedAffinity>
-6.14136

> <CNNscore>
0.2867871523

> <CNNaffinity>
4.8283338547

> <CNN_VS>
1.3847041130

> <CNNaffinity_variance>
0.1167678237

$$$$
[H]OC([H])([H])C(F)(F)C([H])([H])N1[C@]([H])(c2c(F)c([H])nc(OC([H])([H])C([H])([H])N([H])C([H])([H])C([H])([H])C([H])([H])F)c2F)c2c(c3c([H])c([H])c([H])c([H])c3n2[H])C([H])([H])[C@@]1([H])C([H])([H])[H]


 39 42  0  0  0  0  0  0  0  0999 V2000
   -3.1164  -53.9433  -25.4995 C   0  0  0  0  0  0  0  0  0  0  0  0
   -1.7593  -53.5359  -26.0071 C   0  0  0  0  0  0  0  0  0  0  0  0
   -1.1829  -54.8871  -26.5231 C   0  0  0  0  0  0  0  0  0  0  0  0
   -0.9285  -55.6781  -25.3051 C   0  0  0  0  0  0  0  0  0  0  0  0
   -0.5945  -55.0524  -24.1317 C   0  0  0  0  0  0  0  0  0  0  0  0
   -0.4329  -56.0387  -23.2223 N   0  0  0  0  0  0  0  0  0  0  0  0
   -0.6461  -57.2454  -23.7584 C   0  0  0  0  0  0  0  0  0  0  0  0
   -0.6113  -58.5411  -23.2773 C   0  0  0  0  0  0  0  0  0  0  0  0
   -0.8879  -59.6045  -24.1062 C   0  0  0  0  0  0  0  0  0  0  0  0
   -1.2105  -59.4061  -25.4528 C   0  0  0  0  0  0  0  0  0  0  0  0
   -1.2375  -58.1056  -25.9030 C   0  0  0  0  0  0  0  0  0  0  0  0
   -0.9631  -57.0357  -25.0853 C   0  0  0  0  0  0  0  0  0  0  0  0
   -0.4585  -53.5742  -23.9826 C   0  0  0  0  0  0  0  0  0  0  0  0
   -0.8936  -52.8762  -25.1517 N   0  0  0  0  0  0  0  0  0  0  0  0
   -0.1749  -55.8919  -22.2245 H   0  0  0  0  0  0  0  0  0  0  0  0
    0.7937  -53.1803  -23.3580 C   0  0  0  0  0  0  0  0  0  0  0  0
    2.0190  -53.3529  -23.9649 C   0  0  0  0  0  0  0  0  0  0  0  0
    2.0598  -53.9058  -25.1704 F   0  0  0  0  0  0  0  0  0  0  0  0
    3.2048  -52.9708  -23.3629 C   0  0  0  0  0  0  0  0  0  0  0  0
    3.1682  -52.4102  -22.1413 N   0  0  0  0  0  0  0  0  0  0  0  0
    2.0179  -52.2056  -21.4789 C   0  0  0  0  0  0  0  0  0  0  0  0
    0.8405  -52.5941  -22.0965 C   0  0  0  0  0  0  0  0  0  0  0  0
   -0.3017  -52.3716  -21.3943 F   0  0  0  0  0  0  0  0  0  0  0  0
    2.0405  -51.6302  -20.2382 O   0  0  0  0  0  0  0  0  0  0  0  0
    2.5206  -50.3703  -19.8879 C   0  0  0  0  0  0  0  0  0  0  0  0
    4.0030  -50.2287  -19.8803 C   0  0  0  0  0  0  0  0  0  0  0  0
    4.5603  -50.2630  -18.5391 N   0  0  0  0  0  0  0  0  0  0  0  0
    4.4071  -51.1482  -18.0422 H   0  0  0  0  0  0  0  0  0  0  0  0
    4.2243  -49.1083  -17.7582 C   0  0  0  0  0  0  0  0  0  0  0  0
    4.4765  -47.8150  -18.4922 C   0  0  0  0  0  0  0  0  0  0  0  0
    3.3054  -46.8773  -18.4733 C   0  0  0  0  0  0  0  0  0  0  0  0
    3.5761  -45.6692  -17.8709 F   0  0  0  0  0  0  0  0  0  0  0  0
   -0.4252  -51.5948  -25.3118 C   0  0  0  0  0  0  0  0  0  0  0  0
   -0.3497  -50.8092  -26.5311 C   0  0  0  0  0  0  0  0  0  0  0  0
   -1.5666  -50.2837  -26.9647 F   0  0  0  0  0  0  0  0  0  0  0  0
    0.3256  -49.5467  -26.2141 F   0  0  0  0  0  0  0  0  0  0  0  0
    0.4113  -51.2595  -27.7208 C   0  0  0  0  0  0  0  0  0  0  0  0
    1.3921  -52.1823  -27.5858 O   0  0  0  0  0  0  0  0  0  0  0  0
    1.0670  -53.1059  -27.6978 H   0  0  0  0  0  0  0  0  0  0  0  0
  1  2  1  0  0  0
  2  3  1  0  0  0
  3  4  1  0  0  0
  4  5  2  0  0  0
  5  6  1  0  0  0
  6  7  1  0  0  0
  7  8  2  0  0  0
  8  9  1  0  0  0
  9 10  2  0  0  0
 10 11  1  0  0  0
 11 12  2  0  0  0
  5 13  1  0  0  0
 13 16  1  0  0  0
 16 17  2  0  0  0
 17 18  1  0  0  0
 17 19  1  0  0  0
 19 20  2  0  0  0
 20 21  1  0  0  0
 21 24  1  0  0  0
 24 25  1  0  0  0
 25 26  1  0  0  0
 26 27  1  0  0  0
 27 29  1  0  0  0
 29 30  1  0  0  0
 30 31  1  0  0  0
 31 32  1  0  0  0
 21 22  2  0  0  0
 22 23  1  0  0  0
 13 14  1  0  0  0
 14 33  1  0  0  0
 33 34  1  0  0  0
 34 35  1  0  0  0
 34 36  1  0  0  0
 34 37  1  0  0  0
 37 38  1  0  0  0
 14  2  1  0  0  0
 12  4  1  0  0  0
 22 16  1  0  0  0
 12  7  1  0  0  0
  6 15  1  0  0  0
 27 28  1  0  0  0
 38 39  1  0  0  0
M  END
> <minimizedAffinity>
18.11142

> <CNNscore>
0.4464053512

> <CNNaffinity>
7.1214308739

> <CNN_VS>
3.1790449619

> <CNNaffinity_variance>
1.6664083004

$$$$
[H]OC([H])([H])C(F)(F)C([H])([H])N1[C@]([H])(c2c(F)c([H])nc(OC([H])([H])C([H])([H])N([H])C([H])([H])C([H])([H])C([H])([H])F)c2F)c2c(c3c([H])c([H])c([H])c([H])c3n2[H])C([H])([H])[C@@]1([H])C([H])([H])[H]


 39 42  0  0  0  0  0  0  0  0999 V2000
   -2.6348  -55.7205  -25.2035 C   0  0  0  0  0  0  0  0  0  0  0  0
   -1.5661  -54.6996  -25.4882 C   0  0  0  0  0  0  0  0  0  0  0  0
   -0.2974  -55.5880  -25.6465 C   0  0  0  0  0  0  0  0  0  0  0  0
   -0.0153  -56.0877  -24.2884 C   0  0  0  0  0  0  0  0  0  0  0  0
   -0.3405  -55.3313  -23.1920 C   0  0  0  0  0  0  0  0  0  0  0  0
    0.0379  -56.0589  -22.1181 N   0  0  0  0  0  0  0  0  0  0  0  0
    0.5814  -57.2267  -22.4786 C   0  0  0  0  0  0  0  0  0  0  0  0
    1.1137  -58.3024  -21.7923 C   0  0  0  0  0  0  0  0  0  0  0  0
    1.6102  -59.3915  -22.4720 C   0  0  0  0  0  0  0  0  0  0  0  0
    1.5907  -59.4411  -23.8699 C   0  0  0  0  0  0  0  0  0  0  0  0
    1.0547  -58.3560  -24.5255 C   0  0  0  0  0  0  0  0  0  0  0  0
    0.5561  -57.2630  -23.8581 C   0  0  0  0  0  0  0  0  0  0  0  0
   -0.9803  -53.9856  -23.2657 C   0  0  0  0  0  0  0  0  0  0  0  0
   -1.3812  -53.6559  -24.5975 N   0  0  0  0  0  0  0  0  0  0  0  0
   -0.0739  -55.7600  -21.1272 H   0  0  0  0  0  0  0  0  0  0  0  0
   -0.2843  -52.9830  -22.4761 C   0  0  0  0  0  0  0  0  0  0  0  0
   -0.7858  -52.4808  -21.2947 C   0  0  0  0  0  0  0  0  0  0  0  0
   -1.9566  -52.9283  -20.8592 F   0  0  0  0  0  0  0  0  0  0  0  0
   -0.1131  -51.5291  -20.5488 C   0  0  0  0  0  0  0  0  0  0  0  0
    1.0736  -51.0728  -20.9864 N   0  0  0  0  0  0  0  0  0  0  0  0
    1.6345  -51.5078  -22.1265 C   0  0  0  0  0  0  0  0  0  0  0  0
    0.9472  -52.4606  -22.8605 C   0  0  0  0  0  0  0  0  0  0  0  0
    1.5465  -52.8745  -24.0079 F   0  0  0  0  0  0  0  0  0  0  0  0
    2.8447  -51.0086  -22.5229 O   0  0  0  0  0  0  0  0  0  0  0  0
    3.8057  -50.3724  -21.7404 C   0  0  0  0  0  0  0  0  0  0  0  0
    4.1992  -51.0922  -20.4976 C   0  0  0  0  0  0  0  0  0  0  0  0
    3.1991  -50.9841  -19.4494 N   0  0  0  0  0  0  0  0  0  0  0  0
    2.2307  -50.9818  -19.7903 H   0  0  0  0  0  0  0  0  0  0  0  0
    3.4736  -49.9335  -18.5130 C   0  0  0  0  0  0  0  0  0  0  0  0
    4.8770  -49.3949  -18.6366 C   0  0  0  0  0  0  0  0  0  0  0  0
    4.9348  -47.9851  -19.1469 C   0  0  0  0  0  0  0  0  0  0  0  0
    5.3939  -47.0803  -18.2163 F   0  0  0  0  0  0  0  0  0  0  0  0
   -1.5683  -52.3226  -24.8703 C   0  0  0  0  0  0  0  0  0  0  0  0
   -1.4498  -51.6391  -26.1464 C   0  0  0  0  0  0  0  0  0  0  0  0
   -2.2915  -52.1208  -27.1485 F   0  0  0  0  0  0  0  0  0  0  0  0
   -2.0373  -50.3035  -25.9997 F   0  0  0  0  0  0  0  0  0  0  0  0
   -0.1378  -51.3181  -26.7571 C   0  0  0  0  0  0  0  0  0  0  0  0
    0.9487  -51.1412  -25.9697 O   0  0  0  0  0  0  0  0  0  0  0  0
    1.4526  -51.9747  -25.8194 H   0  0  0  0  0  0  0  0  0  0  0  0
  1  2  1  0  0  0
  2  3  1  0  0  0
  3  4  1  0  0  0
  4  5  2  0  0  0
  5  6  1  0  0  0
  6  7  1  0  0  0
  7  8  2  0  0  0
  8  9  1  0  0  0
  9 10  2  0  0  0
 10 11  1  0  0  0
 11 12  2  0  0  0
  5 13  1  0  0  0
 13 16  1  0  0  0
 16 17  2  0  0  0
 17 18  1  0  0  0
 17 19  1  0  0  0
 19 20  2  0  0  0
 20 21  1  0  0  0
 21 24  1  0  0  0
 24 25  1  0  0  0
 25 26  1  0  0  0
 26 27  1  0  0  0
 27 29  1  0  0  0
 29 30  1  0  0  0
 30 31  1  0  0  0
 31 32  1  0  0  0
 21 22  2  0  0  0
 22 23  1  0  0  0
 13 14  1  0  0  0
 14 33  1  0  0  0
 33 34  1  0  0  0
 34 35  1  0  0  0
 34 36  1  0  0  0
 34 37  1  0  0  0
 37 38  1  0  0  0
 14  2  1  0  0  0
 12  4  1  0  0  0
 22 16  1  0  0  0
 12  7  1  0  0  0
  6 15  1  0  0  0
 27 28  1  0  0  0
 38 39  1  0  0  0
M  END
> <minimizedAffinity>
29.58181

> <CNNscore>
0.3573316336

> <CNNaffinity>
6.5961141586

> <CNN_VS>
2.3570003510

> <CNNaffinity_variance>
0.5730458498

$$$$
[H]OC([H])([H])C(F)(F)C([H])([H])N1[C@]([H])(c2c(F)c([H])nc(OC([H])([H])C([H])([H])N([H])C([H])([H])C([H])([H])C([H])([H])F)c2F)c2c(c3c([H])c([H])c([H])c([H])c3n2[H])C([H])([H])[C@@]1([H])C([H])([H])[H]


 39 42  0  0  0  0  0  0  0  0999 V2000
   -2.0845  -51.2675  -23.6221 C   0  0  0  0  0  0  0  0  0  0  0  0
   -0.8187  -51.1423  -24.4267 C   0  0  0  0  0  0  0  0  0  0  0  0
   -0.7662  -52.5090  -25.1706 C   0  0  0  0  0  0  0  0  0  0  0  0
   -0.4703  -53.4994  -24.1193 C   0  0  0  0  0  0  0  0  0  0  0  0
    0.2782  -53.1449  -23.0265 C   0  0  0  0  0  0  0  0  0  0  0  0
    0.3642  -54.2568  -22.2635 N   0  0  0  0  0  0  0  0  0  0  0  0
   -0.2867  -55.2868  -22.8154 C   0  0  0  0  0  0  0  0  0  0  0  0
   -0.5004  -56.6046  -22.4560 C   0  0  0  0  0  0  0  0  0  0  0  0
   -1.2373  -57.4409  -23.2635 C   0  0  0  0  0  0  0  0  0  0  0  0
   -1.7885  -56.9839  -24.4653 C   0  0  0  0  0  0  0  0  0  0  0  0
   -1.5590  -55.6678  -24.7966 C   0  0  0  0  0  0  0  0  0  0  0  0
   -0.8250  -54.8232  -23.9987 C   0  0  0  0  0  0  0  0  0  0  0  0
    0.8438  -51.7818  -22.8082 C   0  0  0  0  0  0  0  0  0  0  0  0
    0.3645  -50.8426  -23.7733 N   0  0  0  0  0  0  0  0  0  0  0  0
    0.8708  -54.3183  -21.3562 H   0  0  0  0  0  0  0  0  0  0  0  0
    2.2633  -51.8006  -22.4952 C   0  0  0  0  0  0  0  0  0  0  0  0
    3.2357  -52.0277  -23.4453 C   0  0  0  0  0  0  0  0  0  0  0  0
    2.8615  -52.2422  -24.7001 F   0  0  0  0  0  0  0  0  0  0  0  0
    4.5846  -52.0396  -23.1373 C   0  0  0  0  0  0  0  0  0  0  0  0
    4.9683  -51.8228  -21.8670 N   0  0  0  0  0  0  0  0  0  0  0  0
    4.0872  -51.5936  -20.8796 C   0  0  0  0  0  0  0  0  0  0  0  0
    2.7410  -51.5851  -21.2058 C   0  0  0  0  0  0  0  0  0  0  0  0
    1.8812  -51.3510  -20.1797 F   0  0  0  0  0  0  0  0  0  0  0  0
    4.5346  -51.3786  -19.6050 O   0  0  0  0  0  0  0  0  0  0  0  0
    3.9501  -50.5932  -18.6140 C   0  0  0  0  0  0  0  0  0  0  0  0
    4.2608  -49.1384  -18.6829 C   0  0  0  0  0  0  0  0  0  0  0  0
    4.0617  -48.4643  -17.4115 N   0  0  0  0  0  0  0  0  0  0  0  0
    4.8774  -48.4909  -16.7887 H   0  0  0  0  0  0  0  0  0  0  0  0
    2.8388  -48.8348  -16.7610 C   0  0  0  0  0  0  0  0  0  0  0  0
    2.4991  -47.9323  -15.6012 C   0  0  0  0  0  0  0  0  0  0  0  0
    3.5100  -47.9745  -14.4933 C   0  0  0  0  0  0  0  0  0  0  0  0
    3.8926  -46.7290  -14.0483 F   0  0  0  0  0  0  0  0  0  0  0  0
    1.1173  -49.7075  -23.9522 C   0  0  0  0  0  0  0  0  0  0  0  0
    2.1584  -49.4628  -24.9349 C   0  0  0  0  0  0  0  0  0  0  0  0
    2.6501  -48.1579  -24.9537 F   0  0  0  0  0  0  0  0  0  0  0  0
    3.3764  -50.1419  -24.4811 F   0  0  0  0  0  0  0  0  0  0  0  0
    2.0586  -49.9412  -26.3343 C   0  0  0  0  0  0  0  0  0  0  0  0
    1.7531  -51.2356  -26.5856 O   0  0  0  0  0  0  0  0  0  0  0  0
    0.7842  -51.3891  -26.6796 H   0  0  0  0  0  0  0  0  0  0  0  0
  1  2  1  0  0  0
  2  3  1  0  0  0
  3  4  1  0  0  0
  4  5  2  0  0  0
  5  6  1  0  0  0
  6  7  1  0  0  0
  7  8  2  0  0  0
  8  9  1  0  0  0
  9 10  2  0  0  0
 10 11  1  0  0  0
 11 12  2  0  0  0
  5 13  1  0  0  0
 13 16  1  0  0  0
 16 17  2  0  0  0
 17 18  1  0  0  0
 17 19  1  0  0  0
 19 20  2  0  0  0
 20 21  1  0  0  0
 21 24  1  0  0  0
 24 25  1  0  0  0
 25 26  1  0  0  0
 26 27  1  0  0  0
 27 29  1  0  0  0
 29 30  1  0  0  0
 30 31  1  0  0  0
 31 32  1  0  0  0
 21 22  2  0  0  0
 22 23  1  0  0  0
 13 14  1  0  0  0
 14 33  1  0  0  0
 33 34  1  0  0  0
 34 35  1  0  0  0
 34 36  1  0  0  0
 34 37  1  0  0  0
 37 38  1  0  0  0
 14  2  1  0  0  0
 12  4  1  0  0  0
 22 16  1  0  0  0
 12  7  1  0  0  0
  6 15  1  0  0  0
 27 28  1  0  0  0
 38 39  1  0  0  0
M  END
> <minimizedAffinity>
7.88885

> <CNNscore>
0.3206699789

> <CNNaffinity>
6.3664636612

> <CNN_VS>
2.0415337086

> <CNNaffinity_variance>
0.4835901856

$$$$
[H]OC([H])([H])C(F)(F)C([H])([H])N1[C@]([H])(c2c(F)c([H])nc(OC([H])([H])C([H])([H])N([H])C([H])([H])C([H])([H])C([H])([H])F)c2F)c2c(c3c([H])c([H])c([H])c([H])c3n2[H])C([H])([H])[C@@]1([H])C([H])([H])[H]


 39 42  0  0  0  0  0  0  0  0999 V2000
   -1.3672  -52.3762  -21.0342 C   0  0  0  0  0  0  0  0  0  0  0  0
    0.1123  -52.6487  -21.0791 C   0  0  0  0  0  0  0  0  0  0  0  0
    0.4187  -53.0405  -19.6037 C   0  0  0  0  0  0  0  0  0  0  0  0
    0.2704  -51.7868  -18.8421 C   0  0  0  0  0  0  0  0  0  0  0  0
    0.5505  -50.5817  -19.4331 C   0  0  0  0  0  0  0  0  0  0  0  0
    0.3163  -49.6453  -18.4874 N   0  0  0  0  0  0  0  0  0  0  0  0
   -0.0939  -50.1944  -17.3387 C   0  0  0  0  0  0  0  0  0  0  0  0
   -0.4546  -49.6976  -16.1000 C   0  0  0  0  0  0  0  0  0  0  0  0
   -0.8426  -50.5479  -15.0895 C   0  0  0  0  0  0  0  0  0  0  0  0
   -0.8829  -51.9323  -15.2857 C   0  0  0  0  0  0  0  0  0  0  0  0
   -0.5185  -52.3973  -16.5289 C   0  0  0  0  0  0  0  0  0  0  0  0
   -0.1292  -51.5586  -17.5456 C   0  0  0  0  0  0  0  0  0  0  0  0
    1.0161  -50.4307  -20.8424 C   0  0  0  0  0  0  0  0  0  0  0  0
    0.9610  -51.6660  -21.5594 N   0  0  0  0  0  0  0  0  0  0  0  0
    0.4358  -48.6201  -18.6225 H   0  0  0  0  0  0  0  0  0  0  0  0
    2.2072  -49.6057  -20.9606 C   0  0  0  0  0  0  0  0  0  0  0  0
    2.1918  -48.3457  -21.5190 C   0  0  0  0  0  0  0  0  0  0  0  0
    1.0413  -47.8645  -21.9722 F   0  0  0  0  0  0  0  0  0  0  0  0
    3.3309  -47.5671  -21.6232 C   0  0  0  0  0  0  0  0  0  0  0  0
    4.4989  -48.0507  -21.1653 N   0  0  0  0  0  0  0  0  0  0  0  0
    4.6032  -49.2679  -20.6072 C   0  0  0  0  0  0  0  0  0  0  0  0
    3.4529  -50.0337  -20.5110 C   0  0  0  0  0  0  0  0  0  0  0  0
    3.5994  -51.2591  -19.9418 F   0  0  0  0  0  0  0  0  0  0  0  0
    5.8176  -49.7084  -20.1579 O   0  0  0  0  0  0  0  0  0  0  0  0
    7.0457  -49.6476  -20.8127 C   0  0  0  0  0  0  0  0  0  0  0  0
    7.0655  -50.2110  -22.1910 C   0  0  0  0  0  0  0  0  0  0  0  0
    6.4978  -49.3035  -23.1732 N   0  0  0  0  0  0  0  0  0  0  0  0
    6.0518  -48.4717  -22.7694 H   0  0  0  0  0  0  0  0  0  0  0  0
    5.6839  -49.9659  -24.1503 C   0  0  0  0  0  0  0  0  0  0  0  0
    6.0901  -51.4018  -24.3701 C   0  0  0  0  0  0  0  0  0  0  0  0
    4.9992  -52.3861  -24.0662 C   0  0  0  0  0  0  0  0  0  0  0  0
    4.9952  -52.8184  -22.7591 F   0  0  0  0  0  0  0  0  0  0  0  0
    1.7470  -51.7601  -22.6822 C   0  0  0  0  0  0  0  0  0  0  0  0
    1.3380  -51.7088  -24.0748 C   0  0  0  0  0  0  0  0  0  0  0  0
    0.0358  -51.2565  -24.2859 F   0  0  0  0  0  0  0  0  0  0  0  0
    2.0539  -50.6009  -24.7154 F   0  0  0  0  0  0  0  0  0  0  0  0
    1.6032  -52.8175  -25.0223 C   0  0  0  0  0  0  0  0  0  0  0  0
    0.6775  -53.7884  -25.2023 O   0  0  0  0  0  0  0  0  0  0  0  0
    0.0480  -53.5865  -25.9332 H   0  0  0  0  0  0  0  0  0  0  0  0
  1  2  1  0  0  0
  2  3  1  0  0  0
  3  4  1  0  0  0
  4  5  2  0  0  0
  5  6  1  0  0  0
  6  7  1  0  0  0
  7  8  2  0  0  0
  8  9  1  0  0  0
  9 10  2  0  0  0
 10 11  1  0  0  0
 11 12  2  0  0  0
  5 13  1  0  0  0
 13 16  1  0  0  0
 16 17  2  0  0  0
 17 18  1  0  0  0
 17 19  1  0  0  0
 19 20  2  0  0  0
 20 21  1  0  0  0
 21 24  1  0  0  0
 24 25  1  0  0  0
 25 26  1  0  0  0
 26 27  1  0  0  0
 27 29  1  0  0  0
 29 30  1  0  0  0
 30 31  1  0  0  0
 31 32  1  0  0  0
 21 22  2  0  0  0
 22 23  1  0  0  0
 13 14  1  0  0  0
 14 33  1  0  0  0
 33 34  1  0  0  0
 34 35  1  0  0  0
 34 36  1  0  0  0
 34 37  1  0  0  0
 37 38  1  0  0  0
 14  2  1  0  0  0
 12  4  1  0  0  0
 22 16  1  0  0  0
 12  7  1  0  0  0
  6 15  1  0  0  0
 27 28  1  0  0  0
 38 39  1  0  0  0
M  END
> <minimizedAffinity>
-5.56693

> <CNNscore>
0.2718467712

> <CNNaffinity>
6.6993408203

> <CNN_VS>
1.8211941719

> <CNNaffinity_variance>
0.1300284266

$$$$
[H]OC([H])([H])C(F)(F)C([H])([H])N1[C@]([H])(c2c(F)c([H])nc(OC([H])([H])C([H])([H])N([H])C([H])([H])C([H])([H])C([H])([H])F)c2F)c2c(c3c([H])c([H])c([H])c([H])c3n2[H])C([H])([H])[C@@]1([H])C([H])([H])[H]


 39 42  0  0  0  0  0  0  0  0999 V2000
   -0.3961  -54.1280  -23.3756 C   0  0  0  0  0  0  0  0  0  0  0  0
   -0.0378  -52.6868  -23.1310 C   0  0  0  0  0  0  0  0  0  0  0  0
   -0.6834  -51.9756  -24.3564 C   0  0  0  0  0  0  0  0  0  0  0  0
    0.1334  -52.3959  -25.5096 C   0  0  0  0  0  0  0  0  0  0  0  0
    1.4657  -52.6766  -25.3476 C   0  0  0  0  0  0  0  0  0  0  0  0
    1.9186  -53.0285  -26.5710 N   0  0  0  0  0  0  0  0  0  0  0  0
    0.9473  -52.9841  -27.4896 C   0  0  0  0  0  0  0  0  0  0  0  0
    0.8824  -53.2405  -28.8466 C   0  0  0  0  0  0  0  0  0  0  0  0
   -0.3033  -53.0986  -29.5310 C   0  0  0  0  0  0  0  0  0  0  0  0
   -1.4712  -52.6928  -28.8766 C   0  0  0  0  0  0  0  0  0  0  0  0
   -1.3758  -52.4450  -27.5260 C   0  0  0  0  0  0  0  0  0  0  0  0
   -0.1978  -52.5830  -26.8318 C   0  0  0  0  0  0  0  0  0  0  0  0
    2.1863  -52.5835  -24.0446 C   0  0  0  0  0  0  0  0  0  0  0  0
    1.2926  -52.3470  -22.9544 N   0  0  0  0  0  0  0  0  0  0  0  0
    2.8995  -53.3027  -26.7864 H   0  0  0  0  0  0  0  0  0  0  0  0
    3.4100  -51.8032  -24.1281 C   0  0  0  0  0  0  0  0  0  0  0  0
    4.6467  -52.3137  -23.7970 C   0  0  0  0  0  0  0  0  0  0  0  0
    4.7253  -53.5710  -23.3804 F   0  0  0  0  0  0  0  0  0  0  0  0
    5.8059  -51.5631  -23.8838 C   0  0  0  0  0  0  0  0  0  0  0  0
    5.7309  -50.2886  -24.3054 N   0  0  0  0  0  0  0  0  0  0  0  0
    4.5670  -49.7124  -24.6477 C   0  0  0  0  0  0  0  0  0  0  0  0
    3.4166  -50.4784  -24.5548 C   0  0  0  0  0  0  0  0  0  0  0  0
    2.2593  -49.8599  -24.9087 F   0  0  0  0  0  0  0  0  0  0  0  0
    4.5503  -48.4118  -25.0706 O   0  0  0  0  0  0  0  0  0  0  0  0
    4.5521  -47.2580  -24.2899 C   0  0  0  0  0  0  0  0  0  0  0  0
    3.2414  -46.5608  -24.1739 C   0  0  0  0  0  0  0  0  0  0  0  0
    2.7244  -46.5662  -22.8162 N   0  0  0  0  0  0  0  0  0  0  0  0
    2.3984  -45.6503  -22.4864 H   0  0  0  0  0  0  0  0  0  0  0  0
    3.5896  -47.2297  -21.8850 C   0  0  0  0  0  0  0  0  0  0  0  0
    2.9793  -48.4863  -21.3163 C   0  0  0  0  0  0  0  0  0  0  0  0
    1.7604  -48.2342  -20.4785 C   0  0  0  0  0  0  0  0  0  0  0  0
    0.5786  -48.5190  -21.1248 F   0  0  0  0  0  0  0  0  0  0  0  0
    1.8433  -51.8181  -21.8124 C   0  0  0  0  0  0  0  0  0  0  0  0
    1.3627  -51.9283  -20.4462 C   0  0  0  0  0  0  0  0  0  0  0  0
    0.1175  -51.3444  -20.2153 F   0  0  0  0  0  0  0  0  0  0  0  0
    0.9884  -53.3264  -20.2103 F   0  0  0  0  0  0  0  0  0  0  0  0
    2.2284  -51.6536  -19.2748 C   0  0  0  0  0  0  0  0  0  0  0  0
    3.5740  -51.6327  -19.4192 O   0  0  0  0  0  0  0  0  0  0  0  0
    3.9227  -50.7353  -19.6297 H   0  0  0  0  0  0  0  0  0  0  0  0
  1  2  1  0  0  0
  2  3  1  0  0  0
  3  4  1  0  0  0
  4  5  2  0  0  0
  5  6  1  0  0  0
  6  7  1  0  0  0
  7  8  2  0  0  0
  8  9  1  0  0  0
  9 10  2  0  0  0
 10 11  1  0  0  0
 11 12  2  0  0  0
  5 13  1  0  0  0
 13 16  1  0  0  0
 16 17  2  0  0  0
 17 18  1  0  0  0
 17 19  1  0  0  0
 19 20  2  0  0  0
 20 21  1  0  0  0
 21 24  1  0  0  0
 24 25  1  0  0  0
 25 26  1  0  0  0
 26 27  1  0  0  0
 27 29  1  0  0  0
 29 30  1  0  0  0
 30 31  1  0  0  0
 31 32  1  0  0  0
 21 22  2  0  0  0
 22 23  1  0  0  0
 13 14  1  0  0  0
 14 33  1  0  0  0
 33 34  1  0  0  0
 34 35  1  0  0  0
 34 36  1  0  0  0
 34 37  1  0  0  0
 37 38  1  0  0  0
 14  2  1  0  0  0
 12  4  1  0  0  0
 22 16  1  0  0  0
 12  7  1  0  0  0
  6 15  1  0  0  0
 27 28  1  0  0  0
 38 39  1  0  0  0
M  END
> <minimizedAffinity>
-7.49777

> <CNNscore>
0.2635644078

> <CNNaffinity>
6.8548288345

> <CNN_VS>
1.8066889048

> <CNNaffinity_variance>
0.3645575643

$$$$
[H]OC([H])([H])C(F)(F)C([H])([H])N1[C@]([H])(c2c(F)c([H])nc(OC([H])([H])C([H])([H])N([H])C([H])([H])C([H])([H])C([H])([H])F)c2F)c2c(c3c([H])c([H])c([H])c([H])c3n2[H])C([H])([H])[C@@]1([H])C([H])([H])[H]


 39 42  0  0  0  0  0  0  0  0999 V2000
    0.3529  -53.7703  -20.1780 C   0  0  0  0  0  0  0  0  0  0  0  0
   -0.0798  -52.3288  -20.1673 C   0  0  0  0  0  0  0  0  0  0  0  0
   -0.7608  -52.1804  -21.5596 C   0  0  0  0  0  0  0  0  0  0  0  0
    0.3463  -52.2538  -22.5305 C   0  0  0  0  0  0  0  0  0  0  0  0
    1.5957  -51.8032  -22.1898 C   0  0  0  0  0  0  0  0  0  0  0  0
    2.3702  -52.0095  -23.2776 N   0  0  0  0  0  0  0  0  0  0  0  0
    1.6781  -52.5628  -24.2797 C   0  0  0  0  0  0  0  0  0  0  0  0
    1.9860  -52.9636  -25.5665 C   0  0  0  0  0  0  0  0  0  0  0  0
    1.0216  -53.5161  -26.3784 C   0  0  0  0  0  0  0  0  0  0  0  0
   -0.2914  -53.6872  -25.9272 C   0  0  0  0  0  0  0  0  0  0  0  0
   -0.5679  -53.2790  -24.6421 C   0  0  0  0  0  0  0  0  0  0  0  0
    0.3862  -52.7260  -23.8221 C   0  0  0  0  0  0  0  0  0  0  0  0
    1.9385  -51.2168  -20.8615 C   0  0  0  0  0  0  0  0  0  0  0  0
    0.8654  -51.3465  -19.9262 N   0  0  0  0  0  0  0  0  0  0  0  0
    3.3818  -51.7722  -23.3418 H   0  0  0  0  0  0  0  0  0  0  0  0
    2.6251  -49.9397  -20.9658 C   0  0  0  0  0  0  0  0  0  0  0  0
    1.9853  -48.7739  -21.3282 C   0  0  0  0  0  0  0  0  0  0  0  0
    0.6867  -48.8180  -21.5973 F   0  0  0  0  0  0  0  0  0  0  0  0
    2.6477  -47.5627  -21.4208 C   0  0  0  0  0  0  0  0  0  0  0  0
    3.9636  -47.5134  -21.1490 N   0  0  0  0  0  0  0  0  0  0  0  0
    4.6641  -48.6013  -20.7890 C   0  0  0  0  0  0  0  0  0  0  0  0
    3.9850  -49.8054  -20.7013 C   0  0  0  0  0  0  0  0  0  0  0  0
    4.7282  -50.8828  -20.3353 F   0  0  0  0  0  0  0  0  0  0  0  0
    6.0014  -48.4921  -20.5235 O   0  0  0  0  0  0  0  0  0  0  0  0
    7.0653  -48.6526  -21.4084 C   0  0  0  0  0  0  0  0  0  0  0  0
    6.9970  -47.8309  -22.6485 C   0  0  0  0  0  0  0  0  0  0  0  0
    6.1156  -48.4049  -23.6506 N   0  0  0  0  0  0  0  0  0  0  0  0
    5.1190  -48.3641  -23.4077 H   0  0  0  0  0  0  0  0  0  0  0  0
    6.5379  -49.6997  -24.0992 C   0  0  0  0  0  0  0  0  0  0  0  0
    5.4151  -50.7068  -24.1116 C   0  0  0  0  0  0  0  0  0  0  0  0
    5.8853  -52.1267  -24.2283 C   0  0  0  0  0  0  0  0  0  0  0  0
    5.2319  -52.9952  -23.3830 F   0  0  0  0  0  0  0  0  0  0  0  0
    0.8803  -50.4905  -18.8518 C   0  0  0  0  0  0  0  0  0  0  0  0
    1.7707  -50.5005  -17.7044 C   0  0  0  0  0  0  0  0  0  0  0  0
    1.2427  -51.0961  -16.5593 F   0  0  0  0  0  0  0  0  0  0  0  0
    2.8411  -51.4665  -17.9717 F   0  0  0  0  0  0  0  0  0  0  0  0
    2.5473  -49.3076  -17.2909 C   0  0  0  0  0  0  0  0  0  0  0  0
    3.8328  -49.4440  -16.8897 O   0  0  0  0  0  0  0  0  0  0  0  0
    4.4767  -49.3536  -17.6302 H   0  0  0  0  0  0  0  0  0  0  0  0
  1  2  1  0  0  0
  2  3  1  0  0  0
  3  4  1  0  0  0
  4  5  2  0  0  0
  5  6  1  0  0  0
  6  7  1  0  0  0
  7  8  2  0  0  0
  8  9  1  0  0  0
  9 10  2  0  0  0
 10 11  1  0  0  0
 11 12  2  0  0  0
  5 13  1  0  0  0
 13 16  1  0  0  0
 16 17  2  0  0  0
 17 18  1  0  0  0
 17 19  1  0  0  0
 19 20  2  0  0  0
 20 21  1  0  0  0
 21 24  1  0  0  0
 24 25  1  0  0  0
 25 26  1  0  0  0
 26 27  1  0  0  0
 27 29  1  0  0  0
 29 30  1  0  0  0
 30 31  1  0  0  0
 31 32  1  0  0  0
 21 22  2  0  0  0
 22 23  1  0  0  0
 13 14  1  0  0  0
 14 33  1  0  0  0
 33 34  1  0  0  0
 34 35  1  0  0  0
 34 36  1  0  0  0
 34 37  1  0  0  0
 37 38  1  0  0  0
 14  2  1  0  0  0
 12  4  1  0  0  0
 22 16  1  0  0  0
 12  7  1  0  0  0
  6 15  1  0  0  0
 27 28  1  0  0  0
 38 39  1  0  0  0
M  END
> <minimizedAffinity>
-6.46857

> <CNNscore>
0.2463621944

> <CNNaffinity>
6.6551656723

> <CNN_VS>
1.6395812035

> <CNNaffinity_variance>
0.2548684776

$$$$
[H]OC([H])([H])C(F)(F)C([H])([H])N1[C@]([H])(c2c(F)c([H])nc(OC([H])([H])C([H])([H])N([H])C([H])([H])C([H])([H])C([H])([H])F)c2F)c2c(c3c([H])c([H])c([H])c([H])c3n2[H])C([H])([H])[C@@]1([H])C([H])([H])[H]


 39 42  0  0  0  0  0  0  0  0999 V2000
   -1.4680  -52.1157  -25.1105 C   0  0  0  0  0  0  0  0  0  0  0  0
   -0.2367  -52.9533  -25.3287 C   0  0  0  0  0  0  0  0  0  0  0  0
   -0.1476  -53.7584  -23.9990 C   0  0  0  0  0  0  0  0  0  0  0  0
    0.2276  -52.7618  -22.9793 C   0  0  0  0  0  0  0  0  0  0  0  0
    0.9954  -51.6784  -23.3210 C   0  0  0  0  0  0  0  0  0  0  0  0
    1.1568  -50.9686  -22.1826 N   0  0  0  0  0  0  0  0  0  0  0  0
    0.5349  -51.5448  -21.1481 C   0  0  0  0  0  0  0  0  0  0  0  0
    0.3928  -51.2377  -19.8076 C   0  0  0  0  0  0  0  0  0  0  0  0
   -0.3322  -52.0579  -18.9734 C   0  0  0  0  0  0  0  0  0  0  0  0
   -0.9432  -53.2204  -19.4553 C   0  0  0  0  0  0  0  0  0  0  0  0
   -0.7845  -53.5000  -20.7937 C   0  0  0  0  0  0  0  0  0  0  0  0
   -0.0629  -52.6890  -21.6365 C   0  0  0  0  0  0  0  0  0  0  0  0
    1.5061  -51.4178  -24.6983 C   0  0  0  0  0  0  0  0  0  0  0  0
    0.9530  -52.3248  -25.6547 N   0  0  0  0  0  0  0  0  0  0  0  0
    1.6957  -50.0812  -22.1059 H   0  0  0  0  0  0  0  0  0  0  0  0
    2.9346  -51.1507  -24.7321 C   0  0  0  0  0  0  0  0  0  0  0  0
    3.8788  -52.0832  -24.3598 C   0  0  0  0  0  0  0  0  0  0  0  0
    3.4677  -53.2761  -23.9491 F   0  0  0  0  0  0  0  0  0  0  0  0
    5.2366  -51.8199  -24.3994 C   0  0  0  0  0  0  0  0  0  0  0  0
    5.6577  -50.6124  -24.8149 N   0  0  0  0  0  0  0  0  0  0  0  0
    4.8059  -49.6462  -25.1953 C   0  0  0  0  0  0  0  0  0  0  0  0
    3.4503  -49.9272  -25.1494 C   0  0  0  0  0  0  0  0  0  0  0  0
    2.6209  -48.9242  -25.5408 F   0  0  0  0  0  0  0  0  0  0  0  0
    5.2909  -48.4364  -25.6098 O   0  0  0  0  0  0  0  0  0  0  0  0
    5.4336  -47.9737  -26.9160 C   0  0  0  0  0  0  0  0  0  0  0  0
    6.7908  -48.1336  -27.5078 C   0  0  0  0  0  0  0  0  0  0  0  0
    6.7585  -48.7648  -28.8159 N   0  0  0  0  0  0  0  0  0  0  0  0
    7.5323  -48.4932  -29.4334 H   0  0  0  0  0  0  0  0  0  0  0  0
    5.4740  -48.6884  -29.4484 C   0  0  0  0  0  0  0  0  0  0  0  0
    5.5496  -48.1582  -30.8585 C   0  0  0  0  0  0  0  0  0  0  0  0
    6.2877  -49.0637  -31.8001 C   0  0  0  0  0  0  0  0  0  0  0  0
    5.8386  -48.9919  -33.0996 F   0  0  0  0  0  0  0  0  0  0  0  0
    1.6475  -52.4768  -26.8302 C   0  0  0  0  0  0  0  0  0  0  0  0
    1.2967  -53.2839  -27.9856 C   0  0  0  0  0  0  0  0  0  0  0  0
    0.5415  -54.4203  -27.6979 F   0  0  0  0  0  0  0  0  0  0  0  0
    0.2902  -52.5507  -28.7601 F   0  0  0  0  0  0  0  0  0  0  0  0
    2.2799  -53.6344  -29.0381 C   0  0  0  0  0  0  0  0  0  0  0  0
    2.6039  -54.9305  -29.2551 O   0  0  0  0  0  0  0  0  0  0  0  0
    2.0320  -55.3599  -29.9332 H   0  0  0  0  0  0  0  0  0  0  0  0
  1  2  1  0  0  0
  2  3  1  0  0  0
  3  4  1  0  0  0
  4  5  2  0  0  0
  5  6  1  0  0  0
  6  7  1  0  0  0
  7  8  2  0  0  0
  8  9  1  0  0  0
  9 10  2  0  0  0
 10 11  1  0  0  0
 11 12  2  0  0  0
  5 13  1  0  0  0
 13 16  1  0  0  0
 16 17  2  0  0  0
 17 18  1  0  0  0
 17 19  1  0  0  0
 19 20  2  0  0  0
 20 21  1  0  0  0
 21 24  1  0  0  0
 24 25  1  0  0  0
 25 26  1  0  0  0
 26 27  1  0  0  0
 27 29  1  0  0  0
 29 30  1  0  0  0
 30 31  1  0  0  0
 31 32  1  0  0  0
 21 22  2  0  0  0
 22 23  1  0  0  0
 13 14  1  0  0  0
 14 33  1  0  0  0
 33 34  1  0  0  0
 34 35  1  0  0  0
 34 36  1  0  0  0
 34 37  1  0  0  0
 37 38  1  0  0  0
 14  2  1  0  0  0
 12  4  1  0  0  0
 22 16  1  0  0  0
 12  7  1  0  0  0
  6 15  1  0  0  0
 27 28  1  0  0  0
 38 39  1  0  0  0
M  END
> <minimizedAffinity>
-7.14190

> <CNNscore>
0.2408261895

> <CNNaffinity>
7.0736589432

> <CNN_VS>
1.7035223246

> <CNNaffinity_variance>
0.0314969607

$$$$
[H]OC([H])([H])C(F)(F)C([H])([H])N1[C@]([H])(c2c(F)c([H])nc(OC([H])([H])C([H])([H])N([H])C([H])([H])C([H])([H])C([H])([H])F)c2F)c2c(c3c([H])c([H])c([H])c([H])c3n2[H])C([H])([H])[C@@]1([H])C([H])([H])[H]


 39 42  0  0  0  0  0  0  0  0999 V2000
   -0.3316  -54.0838  -23.1502 C   0  0  0  0  0  0  0  0  0  0  0  0
    0.0147  -52.6362  -22.9271 C   0  0  0  0  0  0  0  0  0  0  0  0
   -0.6533  -51.9463  -24.1526 C   0  0  0  0  0  0  0  0  0  0  0  0
    0.1535  -52.3720  -25.3109 C   0  0  0  0  0  0  0  0  0  0  0  0
    1.4905  -52.6371  -25.1623 C   0  0  0  0  0  0  0  0  0  0  0  0
    1.9320  -52.9989  -26.3870 N   0  0  0  0  0  0  0  0  0  0  0  0
    0.9490  -52.9754  -27.2939 C   0  0  0  0  0  0  0  0  0  0  0  0
    0.8700  -53.2486  -28.6468 C   0  0  0  0  0  0  0  0  0  0  0  0
   -0.3255  -53.1270  -29.3180 C   0  0  0  0  0  0  0  0  0  0  0  0
   -1.4894  -52.7254  -28.6539 C   0  0  0  0  0  0  0  0  0  0  0  0
   -1.3799  -52.4605  -27.3076 C   0  0  0  0  0  0  0  0  0  0  0  0
   -0.1921  -52.5782  -26.6266 C   0  0  0  0  0  0  0  0  0  0  0  0
    2.2263  -52.5211  -23.8696 C   0  0  0  0  0  0  0  0  0  0  0  0
    1.3437  -52.2808  -22.7712 N   0  0  0  0  0  0  0  0  0  0  0  0
    2.9129  -53.2656  -26.6114 H   0  0  0  0  0  0  0  0  0  0  0  0
    3.4406  -51.7293  -23.9775 C   0  0  0  0  0  0  0  0  0  0  0  0
    4.7013  -52.2734  -23.8578 C   0  0  0  0  0  0  0  0  0  0  0  0
    4.8133  -53.5758  -23.6306 F   0  0  0  0  0  0  0  0  0  0  0  0
    5.8510  -51.5111  -23.9661 C   0  0  0  0  0  0  0  0  0  0  0  0
    5.7421  -50.1908  -24.1962 N   0  0  0  0  0  0  0  0  0  0  0  0
    4.5532  -49.5798  -24.3259 C   0  0  0  0  0  0  0  0  0  0  0  0
    3.4128  -50.3582  -24.2147 C   0  0  0  0  0  0  0  0  0  0  0  0
    2.2296  -49.7035  -24.3506 F   0  0  0  0  0  0  0  0  0  0  0  0
    4.5025  -48.2331  -24.5600 O   0  0  0  0  0  0  0  0  0  0  0  0
    5.5615  -47.3284  -24.5852 C   0  0  0  0  0  0  0  0  0  0  0  0
    6.0274  -46.8501  -23.2542 C   0  0  0  0  0  0  0  0  0  0  0  0
    7.0654  -47.6951  -22.6893 N   0  0  0  0  0  0  0  0  0  0  0  0
    7.1553  -48.6116  -23.1429 H   0  0  0  0  0  0  0  0  0  0  0  0
    7.0141  -47.7727  -21.2584 C   0  0  0  0  0  0  0  0  0  0  0  0
    5.7193  -48.3583  -20.7528 C   0  0  0  0  0  0  0  0  0  0  0  0
    5.7239  -49.8574  -20.6906 C   0  0  0  0  0  0  0  0  0  0  0  0
    6.9534  -50.4165  -20.9574 F   0  0  0  0  0  0  0  0  0  0  0  0
    1.9029  -51.7327  -21.6425 C   0  0  0  0  0  0  0  0  0  0  0  0
    1.4396  -50.5934  -20.8700 C   0  0  0  0  0  0  0  0  0  0  0  0
    0.0586  -50.3993  -20.8845 F   0  0  0  0  0  0  0  0  0  0  0  0
    1.5931  -50.9189  -19.4484 F   0  0  0  0  0  0  0  0  0  0  0  0
    2.0953  -49.2659  -20.9404 C   0  0  0  0  0  0  0  0  0  0  0  0
    1.3663  -48.1677  -21.2476 O   0  0  0  0  0  0  0  0  0  0  0  0
    0.9992  -47.7168  -20.4519 H   0  0  0  0  0  0  0  0  0  0  0  0
  1  2  1  0  0  0
  2  3  1  0  0  0
  3  4  1  0  0  0
  4  5  2  0  0  0
  5  6  1  0  0  0
  6  7  1  0  0  0
  7  8  2  0  0  0
  8  9  1  0  0  0
  9 10  2  0  0  0
 10 11  1  0  0  0
 11 12  2  0  0  0
  5 13  1  0  0  0
 13 16  1  0  0  0
 16 17  2  0  0  0
 17 18  1  0  0  0
 17 19  1  0  0  0
 19 20  2  0  0  0
 20 21  1  0  0  0
 21 24  1  0  0  0
 24 25  1  0  0  0
 25 26  1  0  0  0
 26 27  1  0  0  0
 27 29  1  0  0  0
 29 30  1  0  0  0
 30 31  1  0  0  0
 31 32  1  0  0  0
 21 22  2  0  0  0
 22 23  1  0  0  0
 13 14  1  0  0  0
 14 33  1  0  0  0
 33 34  1  0  0  0
 34 35  1  0  0  0
 34 36  1  0  0  0
 34 37  1  0  0  0
 37 38  1  0  0  0
 14  2  1  0  0  0
 12  4  1  0  0  0
 22 16  1  0  0  0
 12  7  1  0  0  0
  6 15  1  0  0  0
 27 28  1  0  0  0
 38 39  1  0  0  0
M  END
> <minimizedAffinity>
-6.80521

> <CNNscore>
0.1911759824

> <CNNaffinity>
6.6199340820

> <CNN_VS>
1.2655724287

> <CNNaffinity_variance>
0.3680821061

$$$$
[H]OC([H])([H])C(F)(F)C([H])([H])N1[C@]([H])(c2c(F)c([H])nc(OC([H])([H])C([H])([H])N([H])C([H])([H])C([H])([H])C([H])([H])F)c2F)c2c(c3c([H])c([H])c([H])c([H])c3n2[H])C([H])([H])[C@@]1([H])C([H])([H])[H]


 39 42  0  0  0  0  0  0  0  0999 V2000
    2.9778  -52.7767  -27.9516 C   0  0  0  0  0  0  0  0  0  0  0  0
    1.7470  -52.1197  -27.3869 C   0  0  0  0  0  0  0  0  0  0  0  0
    2.3487  -50.9218  -26.5948 C   0  0  0  0  0  0  0  0  0  0  0  0
    3.0325  -51.5371  -25.4426 C   0  0  0  0  0  0  0  0  0  0  0  0
    2.5632  -52.7077  -24.9045 C   0  0  0  0  0  0  0  0  0  0  0  0
    3.3973  -53.0033  -23.8833 N   0  0  0  0  0  0  0  0  0  0  0  0
    4.3614  -52.0856  -23.7508 C   0  0  0  0  0  0  0  0  0  0  0  0
    5.4324  -51.9202  -22.8924 C   0  0  0  0  0  0  0  0  0  0  0  0
    6.2697  -50.8348  -23.0170 C   0  0  0  0  0  0  0  0  0  0  0  0
    6.0621  -49.8725  -24.0108 C   0  0  0  0  0  0  0  0  0  0  0  0
    4.9882  -50.0639  -24.8504 C   0  0  0  0  0  0  0  0  0  0  0  0
    4.1453  -51.1433  -24.7359 C   0  0  0  0  0  0  0  0  0  0  0  0
    1.3641  -53.4375  -25.4097 C   0  0  0  0  0  0  0  0  0  0  0  0
    0.8706  -52.8769  -26.6285 N   0  0  0  0  0  0  0  0  0  0  0  0
    3.3122  -53.8386  -23.2679 H   0  0  0  0  0  0  0  0  0  0  0  0
    0.4168  -53.7681  -24.3577 C   0  0  0  0  0  0  0  0  0  0  0  0
   -0.2938  -54.9489  -24.3352 C   0  0  0  0  0  0  0  0  0  0  0  0
   -0.1092  -55.8215  -25.3176 F   0  0  0  0  0  0  0  0  0  0  0  0
   -1.1904  -55.2554  -23.3268 C   0  0  0  0  0  0  0  0  0  0  0  0
   -1.3807  -54.3739  -22.3295 N   0  0  0  0  0  0  0  0  0  0  0  0
   -0.7300  -53.2004  -22.2739 C   0  0  0  0  0  0  0  0  0  0  0  0
    0.1638  -52.9100  -23.2916 C   0  0  0  0  0  0  0  0  0  0  0  0
    0.8013  -51.7132  -23.2005 F   0  0  0  0  0  0  0  0  0  0  0  0
   -0.9627  -52.3421  -21.2347 O   0  0  0  0  0  0  0  0  0  0  0  0
   -0.5571  -52.4742  -19.9085 C   0  0  0  0  0  0  0  0  0  0  0  0
    0.5799  -51.6052  -19.4966 C   0  0  0  0  0  0  0  0  0  0  0  0
    1.8721  -52.2177  -19.7530 N   0  0  0  0  0  0  0  0  0  0  0  0
    2.3124  -52.6339  -18.9242 H   0  0  0  0  0  0  0  0  0  0  0  0
    2.7573  -51.3757  -20.5035 C   0  0  0  0  0  0  0  0  0  0  0  0
    2.1251  -50.0613  -20.8877 C   0  0  0  0  0  0  0  0  0  0  0  0
    3.0184  -49.1868  -21.7174 C   0  0  0  0  0  0  0  0  0  0  0  0
    4.2676  -48.9979  -21.1703 F   0  0  0  0  0  0  0  0  0  0  0  0
   -0.4346  -53.1596  -26.9504 C   0  0  0  0  0  0  0  0  0  0  0  0
   -1.6126  -52.3363  -26.7406 C   0  0  0  0  0  0  0  0  0  0  0  0
   -2.3187  -52.6127  -25.5703 F   0  0  0  0  0  0  0  0  0  0  0  0
   -1.1629  -50.9821  -26.4022 F   0  0  0  0  0  0  0  0  0  0  0  0
   -2.5916  -52.0604  -27.8189 C   0  0  0  0  0  0  0  0  0  0  0  0
   -3.7094  -52.8161  -27.9261 O   0  0  0  0  0  0  0  0  0  0  0  0
   -4.4707  -52.4476  -27.4204 H   0  0  0  0  0  0  0  0  0  0  0  0
  1  2  1  0  0  0
  2  3  1  0  0  0
  3  4  1  0  0  0
  4  5  2  0  0  0
  5  6  1  0  0  0
  6  7  1  0  0  0
  7  8  2  0  0  0
  8  9  1  0  0  0
  9 10  2  0  0  0
 10 11  1  0  0  0
 11 12  2  0  0  0
  5 13  1  0  0  0
 13 16  1  0  0  0
 16 17  2  0  0  0
 17 18  1  0  0  0
 17 19  1  0  0  0
 19 20  2  0  0  0
 20 21  1  0  0  0
 21 24  1  0  0  0
 24 25  1  0  0  0
 25 26  1  0  0  0
 26 27  1  0  0  0
 27 29  1  0  0  0
 29 30  1  0  0  0
 30 31  1  0  0  0
 31 32  1  0  0  0
 21 22  2  0  0  0
 22 23  1  0  0  0
 13 14  1  0  0  0
 14 33  1  0  0  0
 33 34  1  0  0  0
 34 35  1  0  0  0
 34 36  1  0  0  0
 34 37  1  0  0  0
 37 38  1  0  0  0
 14  2  1  0  0  0
 12  4  1  0  0  0
 22 16  1  0  0  0
 12  7  1  0  0  0
  6 15  1  0  0  0
 27 28  1  0  0  0
 38 39  1  0  0  0
M  END
> <minimizedAffinity>
-6.91834

> <CNNscore>
0.1757552177

> <CNNaffinity>
7.1215224266

> <CNN_VS>
1.2516447306

> <CNNaffinity_variance>
0.1556812376

$$$$
[H]c1c([H])c(C([H])(C(=O)N([H])C([H])([H])c2c([H])c([H])c(C(F)(F)F)c([H])c2C2([H])C([H])([H])C([H])([H])C([H])([H])C([H])([H])C2([H])[H])C([H])([H])[H])c([H])c(F)c1N([H])S(=O)(=O)C([H])([H])[H]


 36 38  0  0  0  0  0  0  0  0999 V2000
   -1.3098  -53.6392  -21.1059 C   0  0  0  0  0  0  0  0  0  0  0  0
   -2.0120  -54.1467  -20.4368 O   0  0  0  0  0  0  0  0  0  0  0  0
   -0.9451  -53.1611  -22.3703 N   0  0  0  0  0  0  0  0  0  0  0  0
   -2.1923  -53.5555  -22.8782 H   0  0  0  0  0  0  0  0  0  0  0  0
    0.6830  -54.4190  -20.2200 C   0  0  0  0  0  0  0  0  0  0  0  0
    0.1044  -53.0099  -20.4891 C   0  0  0  0  0  0  0  0  0  0  0  0
   -0.1709  -52.3556  -19.2605 C   0  0  0  0  0  0  0  0  0  0  0  0
   -0.8280  -52.9188  -18.2424 C   0  0  0  0  0  0  0  0  0  0  0  0
   -0.9804  -52.3675  -17.0432 C   0  0  0  0  0  0  0  0  0  0  0  0
   -0.4215  -51.0436  -16.8187 C   0  0  0  0  0  0  0  0  0  0  0  0
    0.2066  -50.4867  -17.8220 C   0  0  0  0  0  0  0  0  0  0  0  0
    0.6344  -49.1635  -17.6380 F   0  0  0  0  0  0  0  0  0  0  0  0
    0.4067  -51.0403  -19.0686 C   0  0  0  0  0  0  0  0  0  0  0  0
   -0.4485  -50.7692  -15.4377 N   0  0  0  0  0  0  0  0  0  0  0  0
    0.3558  -51.3911  -14.9265 H   0  0  0  0  0  0  0  0  0  0  0  0
   -1.2633  -49.7217  -14.4631 S   0  0  0  0  0  0  0  0  0  0  0  0
   -1.6627  -48.2073  -15.3414 C   0  0  0  0  0  0  0  0  0  0  0  0
   -0.5882  -49.5315  -13.1626 O   0  0  0  0  0  0  0  0  0  0  0  0
   -2.6634  -50.3653  -14.1959 O   0  0  0  0  0  0  0  0  0  0  0  0
   -0.6261  -52.7371  -23.5021 C   0  0  0  0  0  0  0  0  0  0  0  0
    0.6702  -52.2755  -24.0614 C   0  0  0  0  0  0  0  0  0  0  0  0
    1.7179  -51.6798  -23.4091 C   0  0  0  0  0  0  0  0  0  0  0  0
    2.6669  -50.8619  -24.0994 C   0  0  0  0  0  0  0  0  0  0  0  0
    2.4859  -50.7086  -25.3963 C   0  0  0  0  0  0  0  0  0  0  0  0
    1.4270  -51.2903  -26.0806 C   0  0  0  0  0  0  0  0  0  0  0  0
    0.5497  -52.0495  -25.4570 C   0  0  0  0  0  0  0  0  0  0  0  0
   -0.5170  -52.9322  -26.0333 C   0  0  0  0  0  0  0  0  0  0  0  0
    0.1418  -54.1051  -26.7922 C   0  0  0  0  0  0  0  0  0  0  0  0
    0.9107  -53.7712  -27.9869 C   0  0  0  0  0  0  0  0  0  0  0  0
    0.0983  -52.9545  -28.9631 C   0  0  0  0  0  0  0  0  0  0  0  0
   -1.2955  -52.7103  -28.4426 C   0  0  0  0  0  0  0  0  0  0  0  0
   -1.3789  -52.1979  -27.0422 C   0  0  0  0  0  0  0  0  0  0  0  0
    3.2422  -49.5959  -26.1599 C   0  0  0  0  0  0  0  0  0  0  0  0
    2.7445  -48.4100  -26.1099 F   0  0  0  0  0  0  0  0  0  0  0  0
    3.4584  -50.0811  -27.4303 F   0  0  0  0  0  0  0  0  0  0  0  0
    4.5474  -49.5939  -25.5761 F   0  0  0  0  0  0  0  0  0  0  0  0
  5  6  1  0  0  0
  6  1  1  0  0  0
  1  2  2  0  0  0
  1  3  1  0  0  0
  3 20  1  0  0  0
 20 21  1  0  0  0
 21 22  2  0  0  0
 22 23  1  0  0  0
 23 24  2  0  0  0
 24 33  1  0  0  0
 33 34  1  0  0  0
 33 35  1  0  0  0
 33 36  1  0  0  0
 24 25  1  0  0  0
 25 26  2  0  0  0
 26 27  1  0  0  0
 27 28  1  0  0  0
 28 29  1  0  0  0
 29 30  1  0  0  0
 30 31  1  0  0  0
 31 32  1  0  0  0
  6  7  1  0  0  0
  7  8  2  0  0  0
  8  9  1  0  0  0
  9 10  2  0  0  0
 10 14  1  0  0  0
 14 16  1  0  0  0
 16 17  1  0  0  0
 16 18  2  0  0  0
 16 19  2  0  0  0
 10 11  1  0  0  0
 11 12  1  0  0  0
 11 13  2  0  0  0
 26 21  1  0  0  0
 32 27  1  0  0  0
 13  7  1  0  0  0
  3  4  1  0  0  0
 14 15  1  0  0  0
M  END
> <minimizedAffinity>
-8.90416

> <CNNscore>
0.5764085650

> <CNNaffinity>
7.2887105942

> <CNN_VS>
4.2012753487

> <CNNaffinity_variance>
0.4023109376

$$$$
[H]c1c([H])c(C([H])(C(=O)N([H])C([H])([H])c2c([H])c([H])c(C(F)(F)F)c([H])c2C2([H])C([H])([H])C([H])([H])C([H])([H])C([H])([H])C2([H])[H])C([H])([H])[H])c([H])c(F)c1N([H])S(=O)(=O)C([H])([H])[H]


 36 38  0  0  0  0  0  0  0  0999 V2000
   -1.0144  -53.1899  -21.5557 C   0  0  0  0  0  0  0  0  0  0  0  0
   -1.8788  -53.0765  -20.8937 O   0  0  0  0  0  0  0  0  0  0  0  0
   -0.4561  -53.3795  -22.8255 N   0  0  0  0  0  0  0  0  0  0  0  0
   -1.7374  -53.3285  -23.3954 H   0  0  0  0  0  0  0  0  0  0  0  0
    0.2320  -54.1783  -19.8722 C   0  0  0  0  0  0  0  0  0  0  0  0
    0.5240  -53.0825  -20.9244 C   0  0  0  0  0  0  0  0  0  0  0  0
    0.6811  -51.8256  -20.2851 C   0  0  0  0  0  0  0  0  0  0  0  0
    0.8500  -51.6702  -18.9688 C   0  0  0  0  0  0  0  0  0  0  0  0
    1.1266  -50.5154  -18.3728 C   0  0  0  0  0  0  0  0  0  0  0  0
    1.2265  -49.3220  -19.1982 C   0  0  0  0  0  0  0  0  0  0  0  0
    1.0439  -49.4733  -20.4847 C   0  0  0  0  0  0  0  0  0  0  0  0
    1.0194  -48.3025  -21.2570 F   0  0  0  0  0  0  0  0  0  0  0  0
    0.7831  -50.6586  -21.1386 C   0  0  0  0  0  0  0  0  0  0  0  0
    1.7883  -48.2851  -18.4284 N   0  0  0  0  0  0  0  0  0  0  0  0
    0.9921  -47.8829  -17.7218 H   0  0  0  0  0  0  0  0  0  0  0  0
    3.2903  -47.6345  -18.2505 S   0  0  0  0  0  0  0  0  0  0  0  0
    3.6358  -46.4521  -19.5569 C   0  0  0  0  0  0  0  0  0  0  0  0
    4.3258  -48.6700  -18.0535 O   0  0  0  0  0  0  0  0  0  0  0  0
    3.2375  -46.7472  -16.9637 O   0  0  0  0  0  0  0  0  0  0  0  0
    0.0351  -53.5493  -23.9623 C   0  0  0  0  0  0  0  0  0  0  0  0
    1.2190  -52.9529  -24.6326 C   0  0  0  0  0  0  0  0  0  0  0  0
    2.3960  -52.5316  -24.0712 C   0  0  0  0  0  0  0  0  0  0  0  0
    3.2290  -51.5600  -24.7100 C   0  0  0  0  0  0  0  0  0  0  0  0
    2.8103  -51.0887  -25.8679 C   0  0  0  0  0  0  0  0  0  0  0  0
    1.6169  -51.4886  -26.4541 C   0  0  0  0  0  0  0  0  0  0  0  0
    0.8438  -52.3860  -25.8780 C   0  0  0  0  0  0  0  0  0  0  0  0
   -0.3493  -53.1044  -26.4344 C   0  0  0  0  0  0  0  0  0  0  0  0
    0.1242  -54.2303  -27.3799 C   0  0  0  0  0  0  0  0  0  0  0  0
    0.8070  -53.8228  -28.6037 C   0  0  0  0  0  0  0  0  0  0  0  0
   -0.0126  -52.8333  -29.3969 C   0  0  0  0  0  0  0  0  0  0  0  0
   -1.3234  -52.5382  -28.7127 C   0  0  0  0  0  0  0  0  0  0  0  0
   -1.2286  -52.1886  -27.2638 C   0  0  0  0  0  0  0  0  0  0  0  0
    3.4528  -49.8148  -26.4660 C   0  0  0  0  0  0  0  0  0  0  0  0
    3.6520  -49.8017  -27.7374 F   0  0  0  0  0  0  0  0  0  0  0  0
    4.5675  -49.5519  -25.7014 F   0  0  0  0  0  0  0  0  0  0  0  0
    2.5487  -48.7654  -26.1107 F   0  0  0  0  0  0  0  0  0  0  0  0
  5  6  1  0  0  0
  6  1  1  0  0  0
  1  2  2  0  0  0
  1  3  1  0  0  0
  3 20  1  0  0  0
 20 21  1  0  0  0
 21 22  2  0  0  0
 22 23  1  0  0  0
 23 24  2  0  0  0
 24 33  1  0  0  0
 33 34  1  0  0  0
 33 35  1  0  0  0
 33 36  1  0  0  0
 24 25  1  0  0  0
 25 26  2  0  0  0
 26 27  1  0  0  0
 27 28  1  0  0  0
 28 29  1  0  0  0
 29 30  1  0  0  0
 30 31  1  0  0  0
 31 32  1  0  0  0
  6  7  1  0  0  0
  7  8  2  0  0  0
  8  9  1  0  0  0
  9 10  2  0  0  0
 10 14  1  0  0  0
 14 16  1  0  0  0
 16 17  1  0  0  0
 16 18  2  0  0  0
 16 19  2  0  0  0
 10 11  1  0  0  0
 11 12  1  0  0  0
 11 13  2  0  0  0
 26 21  1  0  0  0
 32 27  1  0  0  0
 13  7  1  0  0  0
  3  4  1  0  0  0
 14 15  1  0  0  0
M  END
> <minimizedAffinity>
-8.45060

> <CNNscore>
0.4976108074

> <CNNaffinity>
7.2208566666

> <CNN_VS>
3.5931763649

> <CNNaffinity_variance>
0.2873594165

$$$$
[H]c1c([H])c(C([H])(C(=O)N([H])C([H])([H])c2c([H])c([H])c(C(F)(F)F)c([H])c2C2([H])C([H])([H])C([H])([H])C([H])([H])C([H])([H])C2([H])[H])C([H])([H])[H])c([H])c(F)c1N([H])S(=O)(=O)C([H])([H])[H]


 36 38  0  0  0  0  0  0  0  0999 V2000
   -1.1053  -53.1632  -21.2909 C   0  0  0  0  0  0  0  0  0  0  0  0
   -1.9167  -53.0495  -20.5650 O   0  0  0  0  0  0  0  0  0  0  0  0
   -0.6448  -53.4041  -22.5909 N   0  0  0  0  0  0  0  0  0  0  0  0
   -1.9696  -53.4472  -23.0512 H   0  0  0  0  0  0  0  0  0  0  0  0
    0.4256  -54.2010  -19.8966 C   0  0  0  0  0  0  0  0  0  0  0  0
    0.4724  -52.9464  -20.8005 C   0  0  0  0  0  0  0  0  0  0  0  0
    0.5582  -51.7764  -20.0025 C   0  0  0  0  0  0  0  0  0  0  0  0
    0.3852  -51.7585  -18.6777 C   0  0  0  0  0  0  0  0  0  0  0  0
    0.5887  -50.6988  -17.9025 C   0  0  0  0  0  0  0  0  0  0  0  0
    1.0017  -49.4547  -18.5328 C   0  0  0  0  0  0  0  0  0  0  0  0
    1.1540  -49.4697  -19.8320 C   0  0  0  0  0  0  0  0  0  0  0  0
    1.4316  -48.2392  -20.4455 F   0  0  0  0  0  0  0  0  0  0  0  0
    0.9784  -50.5562  -20.6622 C   0  0  0  0  0  0  0  0  0  0  0  0
    1.4236  -48.5586  -17.5317 N   0  0  0  0  0  0  0  0  0  0  0  0
    0.5047  -48.1281  -17.0167 H   0  0  0  0  0  0  0  0  0  0  0  0
    2.8728  -48.1034  -16.8963 S   0  0  0  0  0  0  0  0  0  0  0  0
    3.7611  -47.0304  -18.0294 C   0  0  0  0  0  0  0  0  0  0  0  0
    3.6458  -49.2566  -16.3905 O   0  0  0  0  0  0  0  0  0  0  0  0
    2.5497  -47.1652  -15.6874 O   0  0  0  0  0  0  0  0  0  0  0  0
   -0.2410  -53.6202  -23.7540 C   0  0  0  0  0  0  0  0  0  0  0  0
   -0.5015  -52.9266  -25.0414 C   0  0  0  0  0  0  0  0  0  0  0  0
   -1.7028  -52.6957  -25.6591 C   0  0  0  0  0  0  0  0  0  0  0  0
   -1.7932  -52.4720  -27.0690 C   0  0  0  0  0  0  0  0  0  0  0  0
   -0.6632  -52.4976  -27.7476 C   0  0  0  0  0  0  0  0  0  0  0  0
    0.5663  -52.7407  -27.1499 C   0  0  0  0  0  0  0  0  0  0  0  0
    0.6629  -52.9432  -25.8520 C   0  0  0  0  0  0  0  0  0  0  0  0
    1.8903  -53.0029  -24.9923 C   0  0  0  0  0  0  0  0  0  0  0  0
    1.9432  -51.7536  -24.0854 C   0  0  0  0  0  0  0  0  0  0  0  0
    2.1207  -50.4642  -24.7455 C   0  0  0  0  0  0  0  0  0  0  0  0
    3.3307  -50.4618  -25.6489 C   0  0  0  0  0  0  0  0  0  0  0  0
    4.0364  -51.7939  -25.6190 C   0  0  0  0  0  0  0  0  0  0  0  0
    3.1631  -52.9893  -25.8167 C   0  0  0  0  0  0  0  0  0  0  0  0
   -0.6862  -52.6011  -29.2910 C   0  0  0  0  0  0  0  0  0  0  0  0
   -0.9777  -51.5315  -29.9448 F   0  0  0  0  0  0  0  0  0  0  0  0
   -1.4669  -53.6951  -29.5906 F   0  0  0  0  0  0  0  0  0  0  0  0
    0.6344  -53.0287  -29.6341 F   0  0  0  0  0  0  0  0  0  0  0  0
  5  6  1  0  0  0
  6  1  1  0  0  0
  1  2  2  0  0  0
  1  3  1  0  0  0
  3 20  1  0  0  0
 20 21  1  0  0  0
 21 22  2  0  0  0
 22 23  1  0  0  0
 23 24  2  0  0  0
 24 33  1  0  0  0
 33 34  1  0  0  0
 33 35  1  0  0  0
 33 36  1  0  0  0
 24 25  1  0  0  0
 25 26  2  0  0  0
 26 27  1  0  0  0
 27 28  1  0  0  0
 28 29  1  0  0  0
 29 30  1  0  0  0
 30 31  1  0  0  0
 31 32  1  0  0  0
  6  7  1  0  0  0
  7  8  2  0  0  0
  8  9  1  0  0  0
  9 10  2  0  0  0
 10 14  1  0  0  0
 14 16  1  0  0  0
 16 17  1  0  0  0
 16 18  2  0  0  0
 16 19  2  0  0  0
 10 11  1  0  0  0
 11 12  1  0  0  0
 11 13  2  0  0  0
 26 21  1  0  0  0
 32 27  1  0  0  0
 13  7  1  0  0  0
  3  4  1  0  0  0
 14 15  1  0  0  0
M  END
> <minimizedAffinity>
-7.74503

> <CNNscore>
0.4517455399

> <CNNaffinity>
7.1687231064

> <CNN_VS>
3.2384386063

> <CNNaffinity_variance>
0.3541094661

$$$$
[H]c1c([H])c(C([H])(C(=O)N([H])C([H])([H])c2c([H])c([H])c(C(F)(F)F)c([H])c2C2([H])C([H])([H])C([H])([H])C([H])([H])C([H])([H])C2([H])[H])C([H])([H])[H])c([H])c(F)c1N([H])S(=O)(=O)C([H])([H])[H]


 36 38  0  0  0  0  0  0  0  0999 V2000
    0.5411  -53.7442  -20.5398 C   0  0  0  0  0  0  0  0  0  0  0  0
    0.5460  -54.5424  -19.7908 O   0  0  0  0  0  0  0  0  0  0  0  0
    0.5201  -53.3080  -21.8701 N   0  0  0  0  0  0  0  0  0  0  0  0
    0.3984  -54.6372  -22.3030 H   0  0  0  0  0  0  0  0  0  0  0  0
    2.0527  -52.1059  -19.9111 C   0  0  0  0  0  0  0  0  0  0  0  0
    0.5123  -52.1532  -20.0453 C   0  0  0  0  0  0  0  0  0  0  0  0
   -0.0892  -52.0723  -18.7628 C   0  0  0  0  0  0  0  0  0  0  0  0
    0.3080  -51.2350  -17.8002 C   0  0  0  0  0  0  0  0  0  0  0  0
   -0.3234  -51.0567  -16.6449 C   0  0  0  0  0  0  0  0  0  0  0  0
   -1.5179  -51.8449  -16.3850 C   0  0  0  0  0  0  0  0  0  0  0  0
   -1.8954  -52.6765  -17.3215 C   0  0  0  0  0  0  0  0  0  0  0  0
   -2.9735  -53.5198  -17.0145 F   0  0  0  0  0  0  0  0  0  0  0  0
   -1.2810  -52.8667  -18.5409 C   0  0  0  0  0  0  0  0  0  0  0  0
   -2.1737  -51.3142  -15.2574 N   0  0  0  0  0  0  0  0  0  0  0  0
   -1.4512  -51.3217  -14.3781 H   0  0  0  0  0  0  0  0  0  0  0  0
   -3.6371  -50.6170  -14.9685 S   0  0  0  0  0  0  0  0  0  0  0  0
   -4.1314  -50.8490  -13.2580 C   0  0  0  0  0  0  0  0  0  0  0  0
   -4.6487  -51.0102  -15.9712 O   0  0  0  0  0  0  0  0  0  0  0  0
   -3.4191  -49.0721  -15.0761 O   0  0  0  0  0  0  0  0  0  0  0  0
    0.5014  -52.9260  -23.0601 C   0  0  0  0  0  0  0  0  0  0  0  0
    1.5739  -52.4367  -23.9638 C   0  0  0  0  0  0  0  0  0  0  0  0
    2.8311  -51.9990  -23.6382 C   0  0  0  0  0  0  0  0  0  0  0  0
    3.5681  -51.1225  -24.4952 C   0  0  0  0  0  0  0  0  0  0  0  0
    2.9796  -50.7554  -25.6164 C   0  0  0  0  0  0  0  0  0  0  0  0
    1.7026  -51.1738  -25.9660 C   0  0  0  0  0  0  0  0  0  0  0  0
    1.0161  -51.9847  -25.1876 C   0  0  0  0  0  0  0  0  0  0  0  0
   -0.2608  -52.7168  -25.4751 C   0  0  0  0  0  0  0  0  0  0  0  0
    0.0580  -54.0326  -26.2187 C   0  0  0  0  0  0  0  0  0  0  0  0
    0.6259  -53.9145  -27.5579 C   0  0  0  0  0  0  0  0  0  0  0  0
   -0.2265  -53.0448  -28.4507 C   0  0  0  0  0  0  0  0  0  0  0  0
   -1.4429  -52.5377  -27.7181 C   0  0  0  0  0  0  0  0  0  0  0  0
   -1.1797  -51.9223  -26.3829 C   0  0  0  0  0  0  0  0  0  0  0  0
    3.5395  -49.5681  -26.4349 C   0  0  0  0  0  0  0  0  0  0  0  0
    3.6362  -49.7292  -27.7081 F   0  0  0  0  0  0  0  0  0  0  0  0
    4.7046  -49.1857  -25.8085 F   0  0  0  0  0  0  0  0  0  0  0  0
    2.6403  -48.4925  -26.1538 F   0  0  0  0  0  0  0  0  0  0  0  0
  5  6  1  0  0  0
  6  1  1  0  0  0
  1  2  2  0  0  0
  1  3  1  0  0  0
  3 20  1  0  0  0
 20 21  1  0  0  0
 21 22  2  0  0  0
 22 23  1  0  0  0
 23 24  2  0  0  0
 24 33  1  0  0  0
 33 34  1  0  0  0
 33 35  1  0  0  0
 33 36  1  0  0  0
 24 25  1  0  0  0
 25 26  2  0  0  0
 26 27  1  0  0  0
 27 28  1  0  0  0
 28 29  1  0  0  0
 29 30  1  0  0  0
 30 31  1  0  0  0
 31 32  1  0  0  0
  6  7  1  0  0  0
  7  8  2  0  0  0
  8  9  1  0  0  0
  9 10  2  0  0  0
 10 14  1  0  0  0
 14 16  1  0  0  0
 16 17  1  0  0  0
 16 18  2  0  0  0
 16 19  2  0  0  0
 10 11  1  0  0  0
 11 12  1  0  0  0
 11 13  2  0  0  0
 26 21  1  0  0  0
 32 27  1  0  0  0
 13  7  1  0  0  0
  3  4  1  0  0  0
 14 15  1  0  0  0
M  END
> <minimizedAffinity>
-8.45747

> <CNNscore>
0.4356497824

> <CNNaffinity>
7.0662703514

> <CNN_VS>
3.0784192085

> <CNNaffinity_variance>
0.4157629907

$$$$
[H]c1c([H])c(C([H])(C(=O)N([H])C([H])([H])c2c([H])c([H])c(C(F)(F)F)c([H])c2C2([H])C([H])([H])C([H])([H])C([H])([H])C([H])([H])C2([H])[H])C([H])([H])[H])c([H])c(F)c1N([H])S(=O)(=O)C([H])([H])[H]


 36 38  0  0  0  0  0  0  0  0999 V2000
   -1.1063  -53.0493  -20.8385 C   0  0  0  0  0  0  0  0  0  0  0  0
   -2.1108  -52.8888  -20.4342 O   0  0  0  0  0  0  0  0  0  0  0  0
   -0.2292  -53.2253  -21.9155 N   0  0  0  0  0  0  0  0  0  0  0  0
   -1.2903  -53.0240  -22.8114 H   0  0  0  0  0  0  0  0  0  0  0  0
   -0.7182  -53.0405  -18.5552 C   0  0  0  0  0  0  0  0  0  0  0  0
    0.1955  -53.1206  -19.8008 C   0  0  0  0  0  0  0  0  0  0  0  0
    0.9565  -51.9291  -19.9217 C   0  0  0  0  0  0  0  0  0  0  0  0
    2.2807  -51.8655  -19.7546 C   0  0  0  0  0  0  0  0  0  0  0  0
    3.0219  -50.7883  -19.9901 C   0  0  0  0  0  0  0  0  0  0  0  0
    2.3520  -49.5761  -20.4344 C   0  0  0  0  0  0  0  0  0  0  0  0
    1.0534  -49.6355  -20.5809 C   0  0  0  0  0  0  0  0  0  0  0  0
    0.4011  -48.4326  -20.8894 F   0  0  0  0  0  0  0  0  0  0  0  0
    0.2579  -50.7420  -20.3723 C   0  0  0  0  0  0  0  0  0  0  0  0
    3.3234  -48.6613  -20.8846 N   0  0  0  0  0  0  0  0  0  0  0  0
    3.6708  -48.9786  -21.9207 H   0  0  0  0  0  0  0  0  0  0  0  0
    3.9539  -47.2465  -20.3261 S   0  0  0  0  0  0  0  0  0  0  0  0
    3.3866  -46.9064  -18.6568 C   0  0  0  0  0  0  0  0  0  0  0  0
    3.7724  -46.1386  -21.2868 O   0  0  0  0  0  0  0  0  0  0  0  0
    5.4884  -47.4880  -20.1449 O   0  0  0  0  0  0  0  0  0  0  0  0
    0.5479  -53.3821  -22.8820 C   0  0  0  0  0  0  0  0  0  0  0  0
    0.4340  -53.0190  -24.3178 C   0  0  0  0  0  0  0  0  0  0  0  0
   -0.5769  -53.3126  -25.1952 C   0  0  0  0  0  0  0  0  0  0  0  0
   -0.3610  -53.3438  -26.6089 C   0  0  0  0  0  0  0  0  0  0  0  0
    0.8595  -53.0750  -27.0288 C   0  0  0  0  0  0  0  0  0  0  0  0
    1.9052  -52.7860  -26.1622 C   0  0  0  0  0  0  0  0  0  0  0  0
    1.7176  -52.7494  -24.8590 C   0  0  0  0  0  0  0  0  0  0  0  0
    2.6377  -52.2526  -23.7840 C   0  0  0  0  0  0  0  0  0  0  0  0
    2.4844  -50.7220  -23.6438 C   0  0  0  0  0  0  0  0  0  0  0  0
    2.9077  -49.9082  -24.7790 C   0  0  0  0  0  0  0  0  0  0  0  0
    4.3267  -50.2199  -25.1906 C   0  0  0  0  0  0  0  0  0  0  0  0
    4.9286  -51.2854  -24.3099 C   0  0  0  0  0  0  0  0  0  0  0  0
    4.0943  -52.5094  -24.1189 C   0  0  0  0  0  0  0  0  0  0  0  0
    1.2710  -53.4055  -28.4830 C   0  0  0  0  0  0  0  0  0  0  0  0
    0.5542  -52.8975  -29.4236 F   0  0  0  0  0  0  0  0  0  0  0  0
    1.4166  -54.7737  -28.5391 F   0  0  0  0  0  0  0  0  0  0  0  0
    2.6126  -52.9220  -28.5871 F   0  0  0  0  0  0  0  0  0  0  0  0
  5  6  1  0  0  0
  6  1  1  0  0  0
  1  2  2  0  0  0
  1  3  1  0  0  0
  3 20  1  0  0  0
 20 21  1  0  0  0
 21 22  2  0  0  0
 22 23  1  0  0  0
 23 24  2  0  0  0
 24 33  1  0  0  0
 33 34  1  0  0  0
 33 35  1  0  0  0
 33 36  1  0  0  0
 24 25  1  0  0  0
 25 26  2  0  0  0
 26 27  1  0  0  0
 27 28  1  0  0  0
 28 29  1  0  0  0
 29 30  1  0  0  0
 30 31  1  0  0  0
 31 32  1  0  0  0
  6  7  1  0  0  0
  7  8  2  0  0  0
  8  9  1  0  0  0
  9 10  2  0  0  0
 10 14  1  0  0  0
 14 16  1  0  0  0
 16 17  1  0  0  0
 16 18  2  0  0  0
 16 19  2  0  0  0
 10 11  1  0  0  0
 11 12  1  0  0  0
 11 13  2  0  0  0
 26 21  1  0  0  0
 32 27  1  0  0  0
 13  7  1  0  0  0
  3  4  1  0  0  0
 14 15  1  0  0  0
M  END
> <minimizedAffinity>
-7.51751

> <CNNscore>
0.4234809279

> <CNNaffinity>
7.2271614075

> <CNN_VS>
3.0605649948

> <CNNaffinity_variance>
0.5201051235

$$$$
[H]c1c([H])c(C([H])(C(=O)N([H])C([H])([H])c2c([H])c([H])c(C(F)(F)F)c([H])c2C2([H])C([H])([H])C([H])([H])C([H])([H])C([H])([H])C2([H])[H])C([H])([H])[H])c([H])c(F)c1N([H])S(=O)(=O)C([H])([H])[H]


 36 38  0  0  0  0  0  0  0  0999 V2000
   -1.0521  -53.1770  -21.4783 C   0  0  0  0  0  0  0  0  0  0  0  0
   -1.9262  -53.0836  -20.8259 O   0  0  0  0  0  0  0  0  0  0  0  0
   -0.4756  -53.3639  -22.7403 N   0  0  0  0  0  0  0  0  0  0  0  0
   -1.7522  -53.3615  -23.3228 H   0  0  0  0  0  0  0  0  0  0  0  0
    0.3050  -54.2733  -19.9549 C   0  0  0  0  0  0  0  0  0  0  0  0
    0.4757  -53.0119  -20.8339 C   0  0  0  0  0  0  0  0  0  0  0  0
    0.5164  -51.8528  -20.0166 C   0  0  0  0  0  0  0  0  0  0  0  0
    0.3379  -51.8630  -18.6924 C   0  0  0  0  0  0  0  0  0  0  0  0
    0.5004  -50.8095  -17.8992 C   0  0  0  0  0  0  0  0  0  0  0  0
    0.8708  -49.5412  -18.5073 C   0  0  0  0  0  0  0  0  0  0  0  0
    1.0283  -49.5294  -19.8059 C   0  0  0  0  0  0  0  0  0  0  0  0
    1.2638  -48.2797  -20.3980 F   0  0  0  0  0  0  0  0  0  0  0  0
    0.8949  -50.6077  -20.6545 C   0  0  0  0  0  0  0  0  0  0  0  0
    1.2565  -48.6472  -17.4899 N   0  0  0  0  0  0  0  0  0  0  0  0
    0.3211  -48.1779  -17.0428 H   0  0  0  0  0  0  0  0  0  0  0  0
    2.6752  -48.2347  -16.7631 S   0  0  0  0  0  0  0  0  0  0  0  0
    3.2920  -49.5826  -15.7497 C   0  0  0  0  0  0  0  0  0  0  0  0
    2.5917  -46.9265  -16.0814 O   0  0  0  0  0  0  0  0  0  0  0  0
    3.7394  -48.1230  -17.9036 O   0  0  0  0  0  0  0  0  0  0  0  0
    0.0320  -53.5315  -23.8703 C   0  0  0  0  0  0  0  0  0  0  0  0
    1.2240  -52.9321  -24.5232 C   0  0  0  0  0  0  0  0  0  0  0  0
    2.3958  -52.5176  -23.9459 C   0  0  0  0  0  0  0  0  0  0  0  0
    3.2374  -51.5426  -24.5680 C   0  0  0  0  0  0  0  0  0  0  0  0
    2.8319  -51.0611  -25.7265 C   0  0  0  0  0  0  0  0  0  0  0  0
    1.6439  -51.4540  -26.3285 C   0  0  0  0  0  0  0  0  0  0  0  0
    0.8631  -52.3544  -25.7678 C   0  0  0  0  0  0  0  0  0  0  0  0
   -0.3254  -53.0660  -26.3426 C   0  0  0  0  0  0  0  0  0  0  0  0
    0.1560  -54.2259  -27.2418 C   0  0  0  0  0  0  0  0  0  0  0  0
    0.8848  -53.8648  -28.4536 C   0  0  0  0  0  0  0  0  0  0  0  0
    0.1096  -52.8826  -29.2990 C   0  0  0  0  0  0  0  0  0  0  0  0
   -1.2163  -52.5450  -28.6653 C   0  0  0  0  0  0  0  0  0  0  0  0
   -1.1605  -52.1574  -27.2240 C   0  0  0  0  0  0  0  0  0  0  0  0
    3.4830  -49.7837  -26.3074 C   0  0  0  0  0  0  0  0  0  0  0  0
    4.6441  -49.4615  -25.8553 F   0  0  0  0  0  0  0  0  0  0  0  0
    2.5306  -48.7931  -26.2186 F   0  0  0  0  0  0  0  0  0  0  0  0
    3.5685  -50.0403  -27.7114 F   0  0  0  0  0  0  0  0  0  0  0  0
  5  6  1  0  0  0
  6  1  1  0  0  0
  1  2  2  0  0  0
  1  3  1  0  0  0
  3 20  1  0  0  0
 20 21  1  0  0  0
 21 22  2  0  0  0
 22 23  1  0  0  0
 23 24  2  0  0  0
 24 33  1  0  0  0
 33 34  1  0  0  0
 33 35  1  0  0  0
 33 36  1  0  0  0
 24 25  1  0  0  0
 25 26  2  0  0  0
 26 27  1  0  0  0
 27 28  1  0  0  0
 28 29  1  0  0  0
 29 30  1  0  0  0
 30 31  1  0  0  0
 31 32  1  0  0  0
  6  7  1  0  0  0
  7  8  2  0  0  0
  8  9  1  0  0  0
  9 10  2  0  0  0
 10 14  1  0  0  0
 14 16  1  0  0  0
 16 17  1  0  0  0
 16 18  2  0  0  0
 16 19  2  0  0  0
 10 11  1  0  0  0
 11 12  1  0  0  0
 11 13  2  0  0  0
 26 21  1  0  0  0
 32 27  1  0  0  0
 13  7  1  0  0  0
  3  4  1  0  0  0
 14 15  1  0  0  0
M  END
> <minimizedAffinity>
-8.39803

> <CNNscore>
0.4181357622

> <CNNaffinity>
7.1108741760

> <CNN_VS>
2.9733107090

> <CNNaffinity_variance>
0.3449979424

$$$$
[H]c1c([H])c(C([H])(C(=O)N([H])C([H])([H])c2c([H])c([H])c(C(F)(F)F)c([H])c2C2([H])C([H])([H])C([H])([H])C([H])([H])C([H])([H])C2([H])[H])C([H])([H])[H])c([H])c(F)c1N([H])S(=O)(=O)C([H])([H])[H]


 36 38  0  0  0  0  0  0  0  0999 V2000
   -0.9823  -53.6687  -21.4723 C   0  0  0  0  0  0  0  0  0  0  0  0
   -1.6620  -54.4511  -21.1199 O   0  0  0  0  0  0  0  0  0  0  0  0
   -0.6399  -52.6533  -22.3733 N   0  0  0  0  0  0  0  0  0  0  0  0
   -1.8712  -52.8182  -23.0257 H   0  0  0  0  0  0  0  0  0  0  0  0
    0.5370  -54.8074  -20.1458 C   0  0  0  0  0  0  0  0  0  0  0  0
    0.4066  -53.3385  -20.6130 C   0  0  0  0  0  0  0  0  0  0  0  0
    0.0877  -52.5049  -19.5099 C   0  0  0  0  0  0  0  0  0  0  0  0
   -0.6474  -52.8943  -18.4643 C   0  0  0  0  0  0  0  0  0  0  0  0
   -0.8460  -52.1706  -17.3679 C   0  0  0  0  0  0  0  0  0  0  0  0
   -0.2497  -50.8456  -17.3009 C   0  0  0  0  0  0  0  0  0  0  0  0
    0.4554  -50.4594  -18.3329 C   0  0  0  0  0  0  0  0  0  0  0  0
    0.9232  -49.1371  -18.3138 F   0  0  0  0  0  0  0  0  0  0  0  0
    0.7043  -51.1938  -19.4728 C   0  0  0  0  0  0  0  0  0  0  0  0
   -0.3443  -50.3732  -15.9777 N   0  0  0  0  0  0  0  0  0  0  0  0
    0.6867  -50.4220  -15.4984 H   0  0  0  0  0  0  0  0  0  0  0  0
   -1.5262  -49.6955  -15.0531 S   0  0  0  0  0  0  0  0  0  0  0  0
   -1.0334  -49.6321  -13.3277 C   0  0  0  0  0  0  0  0  0  0  0  0
   -2.8483  -50.3057  -15.3044 O   0  0  0  0  0  0  0  0  0  0  0  0
   -1.5990  -48.1884  -15.4645 O   0  0  0  0  0  0  0  0  0  0  0  0
   -0.3407  -51.7481  -23.1818 C   0  0  0  0  0  0  0  0  0  0  0  0
   -0.1099  -51.7626  -24.6491 C   0  0  0  0  0  0  0  0  0  0  0  0
   -1.0317  -51.8708  -25.6574 C   0  0  0  0  0  0  0  0  0  0  0  0
   -0.6740  -52.3543  -26.9552 C   0  0  0  0  0  0  0  0  0  0  0  0
    0.5879  -52.6907  -27.1362 C   0  0  0  0  0  0  0  0  0  0  0  0
    1.5402  -52.6025  -26.1296 C   0  0  0  0  0  0  0  0  0  0  0  0
    1.2241  -52.1543  -24.9321 C   0  0  0  0  0  0  0  0  0  0  0  0
    2.1254  -51.7793  -23.7936 C   0  0  0  0  0  0  0  0  0  0  0  0
    2.3363  -50.2492  -23.7883 C   0  0  0  0  0  0  0  0  0  0  0  0
    3.0563  -49.6768  -24.9214 C   0  0  0  0  0  0  0  0  0  0  0  0
    4.3905  -50.3516  -25.1332 C   0  0  0  0  0  0  0  0  0  0  0  0
    4.6236  -51.4328  -24.1085 C   0  0  0  0  0  0  0  0  0  0  0  0
    3.5016  -52.4020  -23.9290 C   0  0  0  0  0  0  0  0  0  0  0  0
    0.9997  -53.5244  -28.3725 C   0  0  0  0  0  0  0  0  0  0  0  0
    0.5295  -53.1531  -29.5115 F   0  0  0  0  0  0  0  0  0  0  0  0
    0.7579  -54.8401  -28.0460 F   0  0  0  0  0  0  0  0  0  0  0  0
    2.4271  -53.4418  -28.3922 F   0  0  0  0  0  0  0  0  0  0  0  0
  5  6  1  0  0  0
  6  1  1  0  0  0
  1  2  2  0  0  0
  1  3  1  0  0  0
  3 20  1  0  0  0
 20 21  1  0  0  0
 21 22  2  0  0  0
 22 23  1  0  0  0
 23 24  2  0  0  0
 24 33  1  0  0  0
 33 34  1  0  0  0
 33 35  1  0  0  0
 33 36  1  0  0  0
 24 25  1  0  0  0
 25 26  2  0  0  0
 26 27  1  0  0  0
 27 28  1  0  0  0
 28 29  1  0  0  0
 29 30  1  0  0  0
 30 31  1  0  0  0
 31 32  1  0  0  0
  6  7  1  0  0  0
  7  8  2  0  0  0
  8  9  1  0  0  0
  9 10  2  0  0  0
 10 14  1  0  0  0
 14 16  1  0  0  0
 16 17  1  0  0  0
 16 18  2  0  0  0
 16 19  2  0  0  0
 10 11  1  0  0  0
 11 12  1  0  0  0
 11 13  2  0  0  0
 26 21  1  0  0  0
 32 27  1  0  0  0
 13  7  1  0  0  0
  3  4  1  0  0  0
 14 15  1  0  0  0
M  END
> <minimizedAffinity>
-8.21723

> <CNNscore>
0.4171217680

> <CNNaffinity>
7.1468439102

> <CNN_VS>
2.9811041355

> <CNNaffinity_variance>
0.7003268003

$$$$
[H]c1c([H])c(C([H])(C(=O)N([H])C([H])([H])c2c([H])c([H])c(C(F)(F)F)c([H])c2C2([H])C([H])([H])C([H])([H])C([H])([H])C([H])([H])C2([H])[H])C([H])([H])[H])c([H])c(F)c1N([H])S(=O)(=O)C([H])([H])[H]


 36 38  0  0  0  0  0  0  0  0999 V2000
   -0.9920  -53.2399  -21.1660 C   0  0  0  0  0  0  0  0  0  0  0  0
   -1.7994  -53.9272  -20.8941 O   0  0  0  0  0  0  0  0  0  0  0  0
   -0.3953  -52.3349  -22.0521 N   0  0  0  0  0  0  0  0  0  0  0  0
   -1.5045  -52.4403  -22.9051 H   0  0  0  0  0  0  0  0  0  0  0  0
    0.4978  -54.4834  -19.9016 C   0  0  0  0  0  0  0  0  0  0  0  0
    0.2525  -52.9679  -20.0918 C   0  0  0  0  0  0  0  0  0  0  0  0
   -0.2728  -52.4079  -18.8986 C   0  0  0  0  0  0  0  0  0  0  0  0
   -1.1255  -53.0394  -18.0865 C   0  0  0  0  0  0  0  0  0  0  0  0
   -1.5244  -52.5815  -16.9048 C   0  0  0  0  0  0  0  0  0  0  0  0
   -1.0268  -51.2874  -16.4649 C   0  0  0  0  0  0  0  0  0  0  0  0
   -0.2055  -50.6629  -17.2691 C   0  0  0  0  0  0  0  0  0  0  0  0
    0.1722  -49.3646  -16.8959 F   0  0  0  0  0  0  0  0  0  0  0  0
    0.2498  -51.1202  -18.4874 C   0  0  0  0  0  0  0  0  0  0  0  0
   -1.3401  -51.1216  -15.1020 N   0  0  0  0  0  0  0  0  0  0  0  0
   -1.2203  -52.1234  -14.5757 H   0  0  0  0  0  0  0  0  0  0  0  0
   -1.7112  -49.8472  -14.1278 S   0  0  0  0  0  0  0  0  0  0  0  0
   -0.2223  -49.0765  -13.4851 C   0  0  0  0  0  0  0  0  0  0  0  0
   -2.7225  -50.2004  -13.1100 O   0  0  0  0  0  0  0  0  0  0  0  0
   -2.3182  -48.7442  -15.0557 O   0  0  0  0  0  0  0  0  0  0  0  0
    0.1316  -51.5281  -22.8483 C   0  0  0  0  0  0  0  0  0  0  0  0
    1.4392  -51.5377  -23.5529 C   0  0  0  0  0  0  0  0  0  0  0  0
    1.8278  -52.3027  -24.6215 C   0  0  0  0  0  0  0  0  0  0  0  0
    3.2060  -52.5758  -24.8898 C   0  0  0  0  0  0  0  0  0  0  0  0
    4.0870  -52.0546  -24.0589 C   0  0  0  0  0  0  0  0  0  0  0  0
    3.7213  -51.2860  -22.9619 C   0  0  0  0  0  0  0  0  0  0  0  0
    2.4559  -51.0235  -22.7073 C   0  0  0  0  0  0  0  0  0  0  0  0
    1.8696  -50.0536  -21.7251 C   0  0  0  0  0  0  0  0  0  0  0  0
    1.9339  -48.6263  -22.3122 C   0  0  0  0  0  0  0  0  0  0  0  0
    3.2610  -48.0551  -22.5184 C   0  0  0  0  0  0  0  0  0  0  0  0
    4.0902  -48.1008  -21.2572 C   0  0  0  0  0  0  0  0  0  0  0  0
    3.3182  -48.7186  -20.1189 C   0  0  0  0  0  0  0  0  0  0  0  0
    2.6502  -50.0188  -20.4254 C   0  0  0  0  0  0  0  0  0  0  0  0
    5.5502  -52.5567  -24.0630 C   0  0  0  0  0  0  0  0  0  0  0  0
    6.0540  -52.8818  -25.2019 F   0  0  0  0  0  0  0  0  0  0  0  0
    5.6232  -53.5344  -23.0961 F   0  0  0  0  0  0  0  0  0  0  0  0
    6.2949  -51.4736  -23.5001 F   0  0  0  0  0  0  0  0  0  0  0  0
  5  6  1  0  0  0
  6  1  1  0  0  0
  1  2  2  0  0  0
  1  3  1  0  0  0
  3 20  1  0  0  0
 20 21  1  0  0  0
 21 22  2  0  0  0
 22 23  1  0  0  0
 23 24  2  0  0  0
 24 33  1  0  0  0
 33 34  1  0  0  0
 33 35  1  0  0  0
 33 36  1  0  0  0
 24 25  1  0  0  0
 25 26  2  0  0  0
 26 27  1  0  0  0
 27 28  1  0  0  0
 28 29  1  0  0  0
 29 30  1  0  0  0
 30 31  1  0  0  0
 31 32  1  0  0  0
  6  7  1  0  0  0
  7  8  2  0  0  0
  8  9  1  0  0  0
  9 10  2  0  0  0
 10 14  1  0  0  0
 14 16  1  0  0  0
 16 17  1  0  0  0
 16 18  2  0  0  0
 16 19  2  0  0  0
 10 11  1  0  0  0
 11 12  1  0  0  0
 11 13  2  0  0  0
 26 21  1  0  0  0
 32 27  1  0  0  0
 13  7  1  0  0  0
  3  4  1  0  0  0
 14 15  1  0  0  0
M  END
> <minimizedAffinity>
-6.81726

> <CNNscore>
0.2915584147

> <CNNaffinity>
6.6474065781

> <CNN_VS>
1.9381073713

> <CNNaffinity_variance>
0.4532063603

$$$$
[H]c1c([H])c(C([H])(C(=O)N([H])C([H])([H])c2c([H])c([H])c(C(F)(F)F)c([H])c2C2([H])C([H])([H])C([H])([H])C([H])([H])C([H])([H])C2([H])[H])C([H])([H])[H])c([H])c(F)c1N([H])S(=O)(=O)C([H])([H])[H]


 36 38  0  0  0  0  0  0  0  0999 V2000
   -0.5043  -52.5945  -21.7459 C   0  0  0  0  0  0  0  0  0  0  0  0
   -1.5167  -53.0106  -21.7649 O   0  0  0  0  0  0  0  0  0  0  0  0
    0.5020  -51.7864  -22.2885 N   0  0  0  0  0  0  0  0  0  0  0  0
   -0.3884  -51.3438  -23.2786 H   0  0  0  0  0  0  0  0  0  0  0  0
    0.1286  -54.4689  -20.5417 C   0  0  0  0  0  0  0  0  0  0  0  0
    0.5161  -52.9724  -20.4840 C   0  0  0  0  0  0  0  0  0  0  0  0
    0.0202  -52.3884  -19.2898 C   0  0  0  0  0  0  0  0  0  0  0  0
   -0.8184  -53.0003  -18.4484 C   0  0  0  0  0  0  0  0  0  0  0  0
   -1.1887  -52.5194  -17.2665 C   0  0  0  0  0  0  0  0  0  0  0  0
   -0.6741  -51.2210  -16.8604 C   0  0  0  0  0  0  0  0  0  0  0  0
    0.1332  -50.6158  -17.6930 C   0  0  0  0  0  0  0  0  0  0  0  0
    0.5265  -49.3135  -17.3509 F   0  0  0  0  0  0  0  0  0  0  0  0
    0.5592  -51.0970  -18.9126 C   0  0  0  0  0  0  0  0  0  0  0  0
   -0.9567  -51.0296  -15.4941 N   0  0  0  0  0  0  0  0  0  0  0  0
   -0.2008  -51.6176  -14.8794 H   0  0  0  0  0  0  0  0  0  0  0  0
   -2.0092  -50.1042  -14.6299 S   0  0  0  0  0  0  0  0  0  0  0  0
   -1.9221  -48.3855  -15.1425 C   0  0  0  0  0  0  0  0  0  0  0  0
   -1.8845  -50.3305  -13.1751 O   0  0  0  0  0  0  0  0  0  0  0  0
   -3.4451  -50.5409  -15.0697 O   0  0  0  0  0  0  0  0  0  0  0  0
    1.3958  -51.0630  -22.7789 C   0  0  0  0  0  0  0  0  0  0  0  0
    2.0197  -49.7990  -22.3105 C   0  0  0  0  0  0  0  0  0  0  0  0
    1.4236  -48.7291  -21.6958 C   0  0  0  0  0  0  0  0  0  0  0  0
    1.9993  -47.4204  -21.7377 C   0  0  0  0  0  0  0  0  0  0  0  0
    3.1340  -47.2921  -22.3967 C   0  0  0  0  0  0  0  0  0  0  0  0
    3.7539  -48.3558  -23.0386 C   0  0  0  0  0  0  0  0  0  0  0  0
    3.2361  -49.5664  -23.0029 C   0  0  0  0  0  0  0  0  0  0  0  0
    3.8437  -50.8686  -23.4321 C   0  0  0  0  0  0  0  0  0  0  0  0
    4.5880  -51.5062  -22.2382 C   0  0  0  0  0  0  0  0  0  0  0  0
    5.7603  -50.7975  -21.7349 C   0  0  0  0  0  0  0  0  0  0  0  0
    6.7559  -50.5146  -22.8345 C   0  0  0  0  0  0  0  0  0  0  0  0
    6.2726  -51.0495  -24.1587 C   0  0  0  0  0  0  0  0  0  0  0  0
    4.8735  -50.6813  -24.5295 C   0  0  0  0  0  0  0  0  0  0  0  0
    3.6545  -45.8868  -22.7807 C   0  0  0  0  0  0  0  0  0  0  0  0
    4.7131  -45.8344  -23.5109 F   0  0  0  0  0  0  0  0  0  0  0  0
    3.7229  -45.1691  -21.6076 F   0  0  0  0  0  0  0  0  0  0  0  0
    2.5603  -45.2852  -23.4774 F   0  0  0  0  0  0  0  0  0  0  0  0
  5  6  1  0  0  0
  6  1  1  0  0  0
  1  2  2  0  0  0
  1  3  1  0  0  0
  3 20  1  0  0  0
 20 21  1  0  0  0
 21 22  2  0  0  0
 22 23  1  0  0  0
 23 24  2  0  0  0
 24 33  1  0  0  0
 33 34  1  0  0  0
 33 35  1  0  0  0
 33 36  1  0  0  0
 24 25  1  0  0  0
 25 26  2  0  0  0
 26 27  1  0  0  0
 27 28  1  0  0  0
 28 29  1  0  0  0
 29 30  1  0  0  0
 30 31  1  0  0  0
 31 32  1  0  0  0
  6  7  1  0  0  0
  7  8  2  0  0  0
  8  9  1  0  0  0
  9 10  2  0  0  0
 10 14  1  0  0  0
 14 16  1  0  0  0
 16 17  1  0  0  0
 16 18  2  0  0  0
 16 19  2  0  0  0
 10 11  1  0  0  0
 11 12  1  0  0  0
 11 13  2  0  0  0
 26 21  1  0  0  0
 32 27  1  0  0  0
 13  7  1  0  0  0
  3  4  1  0  0  0
 14 15  1  0  0  0
M  END
> <minimizedAffinity>
-6.94858

> <CNNscore>
0.2461557239

> <CNNaffinity>
6.6331825256

> <CNN_VS>
1.6327958107

> <CNNaffinity_variance>
0.1157535166

$$$$
[H]OC(=O)C([H])([H])N(C([H])([H])c1c([H])c([H])c([H])c(OC([H])([H])C([H])([H])c2nc(-c3c([H])c([H])c([H])c([H])c3[H])oc2C([H])([H])[H])c1[H])C([H])([H])c1c([H])c([H])c2c([H])c([H])c([H])c([H])c2c1[H]


 39 43  0  0  0  0  0  0  0  0999 V2000
    3.5945  -49.6776  -23.7305 C   0  0  0  0  0  0  0  0  0  0  0  0
    4.7960  -50.1255  -23.2589 C   0  0  0  0  0  0  0  0  0  0  0  0
    4.8280  -51.0407  -22.2338 C   0  0  0  0  0  0  0  0  0  0  0  0
    3.6878  -51.5403  -21.6461 C   0  0  0  0  0  0  0  0  0  0  0  0
    2.4619  -51.1103  -22.0974 C   0  0  0  0  0  0  0  0  0  0  0  0
    2.4427  -50.1980  -23.1191 C   0  0  0  0  0  0  0  0  0  0  0  0
    3.4723  -48.7755  -24.7352 O   0  0  0  0  0  0  0  0  0  0  0  0
    3.9938  -48.6736  -25.9891 C   0  0  0  0  0  0  0  0  0  0  0  0
    4.5248  -47.3497  -26.4291 C   0  0  0  0  0  0  0  0  0  0  0  0
    1.9086  -45.6200  -26.3186 C   0  0  0  0  0  0  0  0  0  0  0  0
    2.5914  -46.0412  -27.5553 C   0  0  0  0  0  0  0  0  0  0  0  0
    2.2341  -45.7729  -28.7911 O   0  0  0  0  0  0  0  0  0  0  0  0
    3.0795  -46.3114  -29.6339 C   0  0  0  0  0  0  0  0  0  0  0  0
    4.0091  -46.9458  -28.8961 N   0  0  0  0  0  0  0  0  0  0  0  0
    3.7487  -46.8067  -27.5950 C   0  0  0  0  0  0  0  0  0  0  0  0
    3.0407  -46.2479  -31.0886 C   0  0  0  0  0  0  0  0  0  0  0  0
    4.0836  -45.6898  -31.7979 C   0  0  0  0  0  0  0  0  0  0  0  0
    4.0690  -45.6161  -33.1883 C   0  0  0  0  0  0  0  0  0  0  0  0
    2.9902  -46.1098  -33.8852 C   0  0  0  0  0  0  0  0  0  0  0  0
    1.9456  -46.6671  -33.2055 C   0  0  0  0  0  0  0  0  0  0  0  0
    1.9745  -46.7342  -31.8093 C   0  0  0  0  0  0  0  0  0  0  0  0
    1.2420  -51.6342  -21.4727 C   0  0  0  0  0  0  0  0  0  0  0  0
    0.6772  -52.7956  -22.0712 N   0  0  0  0  0  0  0  0  0  0  0  0
    0.3912  -53.8207  -21.1323 C   0  0  0  0  0  0  0  0  0  0  0  0
   -1.0331  -54.0827  -20.8870 C   0  0  0  0  0  0  0  0  0  0  0  0
   -1.8071  -54.7204  -21.6207 O   0  0  0  0  0  0  0  0  0  0  0  0
   -1.5953  -53.5648  -19.7037 O   0  0  0  0  0  0  0  0  0  0  0  0
   -2.2447  -52.7931  -19.7602 H   0  0  0  0  0  0  0  0  0  0  0  0
   -0.3509  -52.5102  -23.0272 C   0  0  0  0  0  0  0  0  0  0  0  0
    0.0108  -52.6939  -24.4294 C   0  0  0  0  0  0  0  0  0  0  0  0
    1.2550  -53.0425  -24.9019 C   0  0  0  0  0  0  0  0  0  0  0  0
    1.4992  -53.1867  -26.2591 C   0  0  0  0  0  0  0  0  0  0  0  0
    0.5133  -52.9898  -27.2005 C   0  0  0  0  0  0  0  0  0  0  0  0
    0.7933  -53.1416  -28.5421 C   0  0  0  0  0  0  0  0  0  0  0  0
   -0.1881  -52.9450  -29.4930 C   0  0  0  0  0  0  0  0  0  0  0  0
   -1.4455  -52.5945  -29.0520 C   0  0  0  0  0  0  0  0  0  0  0  0
   -1.7266  -52.4416  -27.6933 C   0  0  0  0  0  0  0  0  0  0  0  0
   -0.7411  -52.6395  -26.7437 C   0  0  0  0  0  0  0  0  0  0  0  0
   -0.9790  -52.4972  -25.3920 C   0  0  0  0  0  0  0  0  0  0  0  0
 10 11  1  0  0  0
 11 12  1  0  0  0
 12 13  1  0  0  0
 13 16  1  0  0  0
 16 17  2  0  0  0
 17 18  1  0  0  0
 18 19  2  0  0  0
 19 20  1  0  0  0
 20 21  2  0  0  0
 13 14  2  0  0  0
 14 15  1  0  0  0
 15  9  1  0  0  0
  9  8  1  0  0  0
  8  7  1  0  0  0
  7  1  1  0  0  0
  1  2  2  0  0  0
  2  3  1  0  0  0
  3  4  2  0  0  0
  4  5  1  0  0  0
  5 22  1  0  0  0
 22 23  1  0  0  0
 23 24  1  0  0  0
 24 25  1  0  0  0
 25 26  2  0  0  0
 25 27  1  0  0  0
 23 29  1  0  0  0
 29 30  1  0  0  0
 30 31  2  0  0  0
 31 32  1  0  0  0
 32 33  2  0  0  0
 33 34  1  0  0  0
 34 35  2  0  0  0
 35 36  1  0  0  0
 36 37  2  0  0  0
 37 38  1  0  0  0
 38 39  2  0  0  0
  5  6  2  0  0  0
 15 11  2  0  0  0
  6  1  1  0  0  0
 21 16  1  0  0  0
 39 30  1  0  0  0
 38 33  1  0  0  0
 27 28  1  0  0  0
M  END
> <minimizedAffinity>
-9.02442

> <CNNscore>
0.2794896066

> <CNNaffinity>
6.3076996803

> <CNN_VS>
1.7629364729

> <CNNaffinity_variance>
1.0807926655

$$$$
[H]OC(=O)C([H])([H])N(C([H])([H])c1c([H])c([H])c([H])c(OC([H])([H])C([H])([H])c2nc(-c3c([H])c([H])c([H])c([H])c3[H])oc2C([H])([H])[H])c1[H])C([H])([H])c1c([H])c([H])c2c([H])c([H])c([H])c([H])c2c1[H]


 39 43  0  0  0  0  0  0  0  0999 V2000
    5.2164  -50.9215  -21.4133 C   0  0  0  0  0  0  0  0  0  0  0  0
    6.4296  -50.3023  -21.5199 C   0  0  0  0  0  0  0  0  0  0  0  0
    6.6453  -49.1087  -20.8733 C   0  0  0  0  0  0  0  0  0  0  0  0
    5.6819  -48.4925  -20.1070 C   0  0  0  0  0  0  0  0  0  0  0  0
    4.4496  -49.0895  -19.9786 C   0  0  0  0  0  0  0  0  0  0  0  0
    4.2464  -50.2785  -20.6279 C   0  0  0  0  0  0  0  0  0  0  0  0
    4.9187  -52.0974  -22.0189 O   0  0  0  0  0  0  0  0  0  0  0  0
    5.1685  -52.6215  -23.2507 C   0  0  0  0  0  0  0  0  0  0  0  0
    5.2277  -51.6913  -24.4167 C   0  0  0  0  0  0  0  0  0  0  0  0
    3.7373  -48.9673  -23.9615 C   0  0  0  0  0  0  0  0  0  0  0  0
    3.1860  -50.1193  -24.6977 C   0  0  0  0  0  0  0  0  0  0  0  0
    2.0086  -50.2035  -25.2753 O   0  0  0  0  0  0  0  0  0  0  0  0
    1.8619  -51.3783  -25.8351 C   0  0  0  0  0  0  0  0  0  0  0  0
    2.9965  -52.0627  -25.5994 N   0  0  0  0  0  0  0  0  0  0  0  0
    3.8525  -51.3211  -24.8942 C   0  0  0  0  0  0  0  0  0  0  0  0
    0.7062  -51.8687  -26.5736 C   0  0  0  0  0  0  0  0  0  0  0  0
   -0.5719  -51.6741  -26.0930 C   0  0  0  0  0  0  0  0  0  0  0  0
   -1.6922  -52.1347  -26.7795 C   0  0  0  0  0  0  0  0  0  0  0  0
   -1.5331  -52.8041  -27.9712 C   0  0  0  0  0  0  0  0  0  0  0  0
   -0.2780  -53.0089  -28.4676 C   0  0  0  0  0  0  0  0  0  0  0  0
    0.8375  -52.5405  -27.7670 C   0  0  0  0  0  0  0  0  0  0  0  0
    3.4158  -48.4365  -19.1677 C   0  0  0  0  0  0  0  0  0  0  0  0
    2.6079  -49.2936  -18.3685 N   0  0  0  0  0  0  0  0  0  0  0  0
    2.8870  -49.1851  -16.9812 C   0  0  0  0  0  0  0  0  0  0  0  0
    3.5232  -50.3566  -16.3644 C   0  0  0  0  0  0  0  0  0  0  0  0
    3.7744  -51.4410  -16.9167 O   0  0  0  0  0  0  0  0  0  0  0  0
    3.8925  -50.2577  -15.0086 O   0  0  0  0  0  0  0  0  0  0  0  0
    3.3750  -50.7787  -14.3149 H   0  0  0  0  0  0  0  0  0  0  0  0
    1.2233  -49.2897  -18.7362 C   0  0  0  0  0  0  0  0  0  0  0  0
    0.6865  -50.5579  -19.2203 C   0  0  0  0  0  0  0  0  0  0  0  0
    0.1173  -51.5410  -18.4443 C   0  0  0  0  0  0  0  0  0  0  0  0
   -0.3592  -52.7176  -19.0019 C   0  0  0  0  0  0  0  0  0  0  0  0
   -0.2881  -52.9622  -20.3554 C   0  0  0  0  0  0  0  0  0  0  0  0
   -0.7719  -54.1445  -20.8743 C   0  0  0  0  0  0  0  0  0  0  0  0
   -0.7039  -54.3990  -22.2295 C   0  0  0  0  0  0  0  0  0  0  0  0
   -0.1387  -53.4340  -23.0343 C   0  0  0  0  0  0  0  0  0  0  0  0
    0.3502  -52.2376  -22.5067 C   0  0  0  0  0  0  0  0  0  0  0  0
    0.2801  -51.9862  -21.1488 C   0  0  0  0  0  0  0  0  0  0  0  0
    0.7529  -50.8169  -20.5891 C   0  0  0  0  0  0  0  0  0  0  0  0
 10 11  1  0  0  0
 11 12  1  0  0  0
 12 13  1  0  0  0
 13 16  1  0  0  0
 16 17  2  0  0  0
 17 18  1  0  0  0
 18 19  2  0  0  0
 19 20  1  0  0  0
 20 21  2  0  0  0
 13 14  2  0  0  0
 14 15  1  0  0  0
 15  9  1  0  0  0
  9  8  1  0  0  0
  8  7  1  0  0  0
  7  1  1  0  0  0
  1  2  2  0  0  0
  2  3  1  0  0  0
  3  4  2  0  0  0
  4  5  1  0  0  0
  5 22  1  0  0  0
 22 23  1  0  0  0
 23 24  1  0  0  0
 24 25  1  0  0  0
 25 26  2  0  0  0
 25 27  1  0  0  0
 23 29  1  0  0  0
 29 30  1  0  0  0
 30 31  2  0  0  0
 31 32  1  0  0  0
 32 33  2  0  0  0
 33 34  1  0  0  0
 34 35  2  0  0  0
 35 36  1  0  0  0
 36 37  2  0  0  0
 37 38  1  0  0  0
 38 39  2  0  0  0
  5  6  2  0  0  0
 15 11  2  0  0  0
  6  1  1  0  0  0
 21 16  1  0  0  0
 39 30  1  0  0  0
 38 33  1  0  0  0
 27 28  1  0  0  0
M  END
> <minimizedAffinity>
-8.45076

> <CNNscore>
0.2772760987

> <CNNaffinity>
6.7141394615

> <CNN_VS>
1.8616703749

> <CNNaffinity_variance>
0.4003192782

$$$$
[H]OC(=O)C([H])([H])N(C([H])([H])c1c([H])c([H])c([H])c(OC([H])([H])C([H])([H])c2nc(-c3c([H])c([H])c([H])c([H])c3[H])oc2C([H])([H])[H])c1[H])C([H])([H])c1c([H])c([H])c2c([H])c([H])c([H])c([H])c2c1[H]


 39 43  0  0  0  0  0  0  0  0999 V2000
    2.5462  -49.2586  -19.5672 C   0  0  0  0  0  0  0  0  0  0  0  0
    1.6224  -48.4572  -20.1762 C   0  0  0  0  0  0  0  0  0  0  0  0
    1.4058  -48.5721  -21.5288 C   0  0  0  0  0  0  0  0  0  0  0  0
    2.0855  -49.4725  -22.3176 C   0  0  0  0  0  0  0  0  0  0  0  0
    3.0222  -50.2944  -21.7358 C   0  0  0  0  0  0  0  0  0  0  0  0
    3.2295  -50.1705  -20.3873 C   0  0  0  0  0  0  0  0  0  0  0  0
    2.8234  -49.2096  -18.2409 O   0  0  0  0  0  0  0  0  0  0  0  0
    2.4247  -49.9350  -17.1596 C   0  0  0  0  0  0  0  0  0  0  0  0
    0.9839  -49.8926  -16.7714 C   0  0  0  0  0  0  0  0  0  0  0  0
   -1.1514  -51.6954  -15.3435 C   0  0  0  0  0  0  0  0  0  0  0  0
   -0.7262  -51.8404  -16.7475 C   0  0  0  0  0  0  0  0  0  0  0  0
   -1.1552  -52.7239  -17.6206 O   0  0  0  0  0  0  0  0  0  0  0  0
   -0.5536  -52.5526  -18.7711 C   0  0  0  0  0  0  0  0  0  0  0  0
    0.2904  -51.5160  -18.6149 N   0  0  0  0  0  0  0  0  0  0  0  0
    0.2196  -51.0382  -17.3713 C   0  0  0  0  0  0  0  0  0  0  0  0
   -0.7457  -53.3211  -19.9934 C   0  0  0  0  0  0  0  0  0  0  0  0
   -2.0121  -53.5559  -20.4868 C   0  0  0  0  0  0  0  0  0  0  0  0
   -2.2215  -54.2889  -21.6519 C   0  0  0  0  0  0  0  0  0  0  0  0
   -1.1437  -54.7984  -22.3389 C   0  0  0  0  0  0  0  0  0  0  0  0
    0.1197  -54.5794  -21.8706 C   0  0  0  0  0  0  0  0  0  0  0  0
    0.3144  -53.8414  -20.6993 C   0  0  0  0  0  0  0  0  0  0  0  0
    3.7546  -51.2532  -22.5706 C   0  0  0  0  0  0  0  0  0  0  0  0
    3.4378  -51.2502  -23.9583 N   0  0  0  0  0  0  0  0  0  0  0  0
    4.4512  -50.6604  -24.7579 C   0  0  0  0  0  0  0  0  0  0  0  0
    4.0023  -49.6203  -25.6929 C   0  0  0  0  0  0  0  0  0  0  0  0
    3.7667  -48.4308  -25.4217 O   0  0  0  0  0  0  0  0  0  0  0  0
    3.8143  -49.9925  -27.0385 O   0  0  0  0  0  0  0  0  0  0  0  0
    2.8768  -50.0497  -27.4103 H   0  0  0  0  0  0  0  0  0  0  0  0
    2.9037  -52.4927  -24.4310 C   0  0  0  0  0  0  0  0  0  0  0  0
    1.5885  -52.4252  -25.0607 C   0  0  0  0  0  0  0  0  0  0  0  0
    0.4013  -52.1542  -24.4204 C   0  0  0  0  0  0  0  0  0  0  0  0
   -0.8009  -52.1189  -25.1101 C   0  0  0  0  0  0  0  0  0  0  0  0
   -0.8690  -52.3519  -26.4659 C   0  0  0  0  0  0  0  0  0  0  0  0
   -2.0829  -52.3090  -27.1183 C   0  0  0  0  0  0  0  0  0  0  0  0
   -2.1610  -52.5423  -28.4767 C   0  0  0  0  0  0  0  0  0  0  0  0
   -0.9892  -52.8171  -29.1473 C   0  0  0  0  0  0  0  0  0  0  0  0
    0.2387  -52.8597  -28.4847 C   0  0  0  0  0  0  0  0  0  0  0  0
    0.3130  -52.6253  -27.1240 C   0  0  0  0  0  0  0  0  0  0  0  0
    1.5070  -52.6593  -26.4331 C   0  0  0  0  0  0  0  0  0  0  0  0
 10 11  1  0  0  0
 11 12  1  0  0  0
 12 13  1  0  0  0
 13 16  1  0  0  0
 16 17  2  0  0  0
 17 18  1  0  0  0
 18 19  2  0  0  0
 19 20  1  0  0  0
 20 21  2  0  0  0
 13 14  2  0  0  0
 14 15  1  0  0  0
 15  9  1  0  0  0
  9  8  1  0  0  0
  8  7  1  0  0  0
  7  1  1  0  0  0
  1  2  2  0  0  0
  2  3  1  0  0  0
  3  4  2  0  0  0
  4  5  1  0  0  0
  5 22  1  0  0  0
 22 23  1  0  0  0
 23 24  1  0  0  0
 24 25  1  0  0  0
 25 26  2  0  0  0
 25 27  1  0  0  0
 23 29  1  0  0  0
 29 30  1  0  0  0
 30 31  2  0  0  0
 31 32  1  0  0  0
 32 33  2  0  0  0
 33 34  1  0  0  0
 34 35  2  0  0  0
 35 36  1  0  0  0
 36 37  2  0  0  0
 37 38  1  0  0  0
 38 39  2  0  0  0
  5  6  2  0  0  0
 15 11  2  0  0  0
  6  1  1  0  0  0
 21 16  1  0  0  0
 39 30  1  0  0  0
 38 33  1  0  0  0
 27 28  1  0  0  0
M  END
> <minimizedAffinity>
-8.56416

> <CNNscore>
0.2397862673

> <CNNaffinity>
6.7570114136

> <CNN_VS>
1.6202385426

> <CNNaffinity_variance>
0.4324327409

$$$$
[H]OC(=O)C([H])([H])N(C([H])([H])c1c([H])c([H])c([H])c(OC([H])([H])C([H])([H])c2nc(-c3c([H])c([H])c([H])c([H])c3[H])oc2C([H])([H])[H])c1[H])C([H])([H])c1c([H])c([H])c2c([H])c([H])c([H])c([H])c2c1[H]


 39 43  0  0  0  0  0  0  0  0999 V2000
    2.1798  -48.3439  -21.6649 C   0  0  0  0  0  0  0  0  0  0  0  0
    2.9429  -48.2226  -20.5382 C   0  0  0  0  0  0  0  0  0  0  0  0
    3.8230  -47.1734  -20.4201 C   0  0  0  0  0  0  0  0  0  0  0  0
    3.9778  -46.2179  -21.3989 C   0  0  0  0  0  0  0  0  0  0  0  0
    3.2245  -46.3104  -22.5459 C   0  0  0  0  0  0  0  0  0  0  0  0
    2.3512  -47.3605  -22.6522 C   0  0  0  0  0  0  0  0  0  0  0  0
    1.2901  -49.3474  -21.8638 O   0  0  0  0  0  0  0  0  0  0  0  0
    1.3920  -50.7018  -21.9621 C   0  0  0  0  0  0  0  0  0  0  0  0
    0.1503  -51.5172  -21.8158 C   0  0  0  0  0  0  0  0  0  0  0  0
   -0.6905  -54.5380  -21.9442 C   0  0  0  0  0  0  0  0  0  0  0  0
   -0.4942  -53.6651  -23.1158 C   0  0  0  0  0  0  0  0  0  0  0  0
   -0.6335  -53.9904  -24.3814 O   0  0  0  0  0  0  0  0  0  0  0  0
   -0.3774  -52.9578  -25.1451 C   0  0  0  0  0  0  0  0  0  0  0  0
   -0.0635  -51.9387  -24.3241 N   0  0  0  0  0  0  0  0  0  0  0  0
   -0.1219  -52.3294  -23.0497 C   0  0  0  0  0  0  0  0  0  0  0  0
   -0.4189  -52.9011  -26.5999 C   0  0  0  0  0  0  0  0  0  0  0  0
   -1.5912  -52.5984  -27.2605 C   0  0  0  0  0  0  0  0  0  0  0  0
   -1.6566  -52.5398  -28.6501 C   0  0  0  0  0  0  0  0  0  0  0  0
   -0.5275  -52.7889  -29.3960 C   0  0  0  0  0  0  0  0  0  0  0  0
    0.6450  -53.0906  -28.7652 C   0  0  0  0  0  0  0  0  0  0  0  0
    0.6952  -53.1457  -27.3692 C   0  0  0  0  0  0  0  0  0  0  0  0
    3.3874  -45.2988  -23.5960 C   0  0  0  0  0  0  0  0  0  0  0  0
    3.3395  -45.7711  -24.9380 N   0  0  0  0  0  0  0  0  0  0  0  0
    3.0448  -44.7482  -25.8765 C   0  0  0  0  0  0  0  0  0  0  0  0
    2.9124  -45.1822  -27.2735 C   0  0  0  0  0  0  0  0  0  0  0  0
    3.7404  -45.0129  -28.1844 O   0  0  0  0  0  0  0  0  0  0  0  0
    1.7320  -45.8609  -27.6347 O   0  0  0  0  0  0  0  0  0  0  0  0
    1.0537  -45.3969  -28.2221 H   0  0  0  0  0  0  0  0  0  0  0  0
    4.4185  -46.6495  -25.2794 C   0  0  0  0  0  0  0  0  0  0  0  0
    4.1006  -48.0741  -25.3027 C   0  0  0  0  0  0  0  0  0  0  0  0
    3.2009  -48.6854  -26.1451 C   0  0  0  0  0  0  0  0  0  0  0  0
    2.9646  -50.0502  -26.0836 C   0  0  0  0  0  0  0  0  0  0  0  0
    3.6155  -50.8613  -25.1806 C   0  0  0  0  0  0  0  0  0  0  0  0
    3.3543  -52.2148  -25.1481 C   0  0  0  0  0  0  0  0  0  0  0  0
    4.0009  -53.0353  -24.2456 C   0  0  0  0  0  0  0  0  0  0  0  0
    4.9082  -52.4534  -23.3874 C   0  0  0  0  0  0  0  0  0  0  0  0
    5.1711  -51.0829  -23.4223 C   0  0  0  0  0  0  0  0  0  0  0  0
    4.5217  -50.2641  -24.3279 C   0  0  0  0  0  0  0  0  0  0  0  0
    4.7534  -48.9054  -24.3929 C   0  0  0  0  0  0  0  0  0  0  0  0
 10 11  1  0  0  0
 11 12  1  0  0  0
 12 13  1  0  0  0
 13 16  1  0  0  0
 16 17  2  0  0  0
 17 18  1  0  0  0
 18 19  2  0  0  0
 19 20  1  0  0  0
 20 21  2  0  0  0
 13 14  2  0  0  0
 14 15  1  0  0  0
 15  9  1  0  0  0
  9  8  1  0  0  0
  8  7  1  0  0  0
  7  1  1  0  0  0
  1  2  2  0  0  0
  2  3  1  0  0  0
  3  4  2  0  0  0
  4  5  1  0  0  0
  5 22  1  0  0  0
 22 23  1  0  0  0
 23 24  1  0  0  0
 24 25  1  0  0  0
 25 26  2  0  0  0
 25 27  1  0  0  0
 23 29  1  0  0  0
 29 30  1  0  0  0
 30 31  2  0  0  0
 31 32  1  0  0  0
 32 33  2  0  0  0
 33 34  1  0  0  0
 34 35  2  0  0  0
 35 36  1  0  0  0
 36 37  2  0  0  0
 37 38  1  0  0  0
 38 39  2  0  0  0
  5  6  2  0  0  0
 15 11  2  0  0  0
  6  1  1  0  0  0
 21 16  1  0  0  0
 39 30  1  0  0  0
 38 33  1  0  0  0
 27 28  1  0  0  0
M  END
> <minimizedAffinity>
-7.89806

> <CNNscore>
0.1625435203

> <CNNaffinity>
6.3501100540

> <CNN_VS>
1.0321692228

> <CNNaffinity_variance>
0.7248174548

$$$$
[H]OC(=O)C([H])([H])N(C([H])([H])c1c([H])c([H])c([H])c(OC([H])([H])C([H])([H])c2nc(-c3c([H])c([H])c([H])c([H])c3[H])oc2C([H])([H])[H])c1[H])C([H])([H])c1c([H])c([H])c2c([H])c([H])c([H])c([H])c2c1[H]


 39 43  0  0  0  0  0  0  0  0999 V2000
   -0.0722  -52.6204  -19.5877 C   0  0  0  0  0  0  0  0  0  0  0  0
   -1.2547  -53.2883  -19.7366 C   0  0  0  0  0  0  0  0  0  0  0  0
   -1.5807  -53.8347  -20.9551 C   0  0  0  0  0  0  0  0  0  0  0  0
   -0.7594  -53.7423  -22.0559 C   0  0  0  0  0  0  0  0  0  0  0  0
    0.4386  -53.0768  -21.9400 C   0  0  0  0  0  0  0  0  0  0  0  0
    0.7523  -52.5362  -20.7210 C   0  0  0  0  0  0  0  0  0  0  0  0
    0.3257  -52.0503  -18.4238 O   0  0  0  0  0  0  0  0  0  0  0  0
   -0.2599  -51.2051  -17.5310 C   0  0  0  0  0  0  0  0  0  0  0  0
   -0.7558  -51.7707  -16.2416 C   0  0  0  0  0  0  0  0  0  0  0  0
   -0.3923  -52.1101  -13.1430 C   0  0  0  0  0  0  0  0  0  0  0  0
   -0.7354  -50.8464  -13.8200 C   0  0  0  0  0  0  0  0  0  0  0  0
   -0.9423  -49.6757  -13.2601 O   0  0  0  0  0  0  0  0  0  0  0  0
   -1.2255  -48.7807  -14.1733 C   0  0  0  0  0  0  0  0  0  0  0  0
   -1.1953  -49.4162  -15.3592 N   0  0  0  0  0  0  0  0  0  0  0  0
   -0.8945  -50.7053  -15.1918 C   0  0  0  0  0  0  0  0  0  0  0  0
   -1.5183  -47.3688  -13.9679 C   0  0  0  0  0  0  0  0  0  0  0  0
   -1.4723  -46.4789  -15.0207 C   0  0  0  0  0  0  0  0  0  0  0  0
   -1.7465  -45.1246  -14.8494 C   0  0  0  0  0  0  0  0  0  0  0  0
   -2.0733  -44.6486  -13.6004 C   0  0  0  0  0  0  0  0  0  0  0  0
   -2.1256  -45.5099  -12.5425 C   0  0  0  0  0  0  0  0  0  0  0  0
   -1.8479  -46.8672  -12.7299 C   0  0  0  0  0  0  0  0  0  0  0  0
    1.3172  -52.9695  -23.1101 C   0  0  0  0  0  0  0  0  0  0  0  0
    2.1068  -51.7884  -23.1983 N   0  0  0  0  0  0  0  0  0  0  0  0
    3.5007  -52.0532  -23.2271 C   0  0  0  0  0  0  0  0  0  0  0  0
    4.2837  -51.4733  -22.1279 C   0  0  0  0  0  0  0  0  0  0  0  0
    3.8562  -50.7446  -21.2167 O   0  0  0  0  0  0  0  0  0  0  0  0
    5.6619  -51.7622  -22.0879 O   0  0  0  0  0  0  0  0  0  0  0  0
    6.3274  -51.0330  -22.3018 H   0  0  0  0  0  0  0  0  0  0  0  0
    1.6239  -50.8419  -24.1592 C   0  0  0  0  0  0  0  0  0  0  0  0
    1.1067  -51.4017  -25.4042 C   0  0  0  0  0  0  0  0  0  0  0  0
    1.8637  -51.8827  -26.4475 C   0  0  0  0  0  0  0  0  0  0  0  0
    1.2742  -52.3905  -27.5950 C   0  0  0  0  0  0  0  0  0  0  0  0
   -0.0935  -52.4400  -27.7495 C   0  0  0  0  0  0  0  0  0  0  0  0
   -0.6443  -52.9516  -28.9055 C   0  0  0  0  0  0  0  0  0  0  0  0
   -2.0140  -53.0041  -29.0697 C   0  0  0  0  0  0  0  0  0  0  0  0
   -2.8004  -52.5295  -28.0427 C   0  0  0  0  0  0  0  0  0  0  0  0
   -2.2406  -52.0123  -26.8732 C   0  0  0  0  0  0  0  0  0  0  0  0
   -0.8681  -51.9615  -26.7122 C   0  0  0  0  0  0  0  0  0  0  0  0
   -0.2767  -51.4571  -25.5722 C   0  0  0  0  0  0  0  0  0  0  0  0
 10 11  1  0  0  0
 11 12  1  0  0  0
 12 13  1  0  0  0
 13 16  1  0  0  0
 16 17  2  0  0  0
 17 18  1  0  0  0
 18 19  2  0  0  0
 19 20  1  0  0  0
 20 21  2  0  0  0
 13 14  2  0  0  0
 14 15  1  0  0  0
 15  9  1  0  0  0
  9  8  1  0  0  0
  8  7  1  0  0  0
  7  1  1  0  0  0
  1  2  2  0  0  0
  2  3  1  0  0  0
  3  4  2  0  0  0
  4  5  1  0  0  0
  5 22  1  0  0  0
 22 23  1  0  0  0
 23 24  1  0  0  0
 24 25  1  0  0  0
 25 26  2  0  0  0
 25 27  1  0  0  0
 23 29  1  0  0  0
 29 30  1  0  0  0
 30 31  2  0  0  0
 31 32  1  0  0  0
 32 33  2  0  0  0
 33 34  1  0  0  0
 34 35  2  0  0  0
 35 36  1  0  0  0
 36 37  2  0  0  0
 37 38  1  0  0  0
 38 39  2  0  0  0
  5  6  2  0  0  0
 15 11  2  0  0  0
  6  1  1  0  0  0
 21 16  1  0  0  0
 39 30  1  0  0  0
 38 33  1  0  0  0
 27 28  1  0  0  0
M  END
> <minimizedAffinity>
-8.02969

> <CNNscore>
0.1490332037

> <CNNaffinity>
6.0278840065

> <CNN_VS>
0.8983548880

> <CNNaffinity_variance>
0.1793535054

$$$$
[H]OC(=O)C([H])([H])N(C([H])([H])c1c([H])c([H])c([H])c(OC([H])([H])C([H])([H])c2nc(-c3c([H])c([H])c([H])c([H])c3[H])oc2C([H])([H])[H])c1[H])C([H])([H])c1c([H])c([H])c2c([H])c([H])c([H])c([H])c2c1[H]


 39 43  0  0  0  0  0  0  0  0999 V2000
    3.9032  -51.3470  -20.3155 C   0  0  0  0  0  0  0  0  0  0  0  0
    4.7322  -51.8096  -21.2979 C   0  0  0  0  0  0  0  0  0  0  0  0
    5.6395  -50.9579  -21.8818 C   0  0  0  0  0  0  0  0  0  0  0  0
    5.7587  -49.6352  -21.5195 C   0  0  0  0  0  0  0  0  0  0  0  0
    4.9393  -49.1376  -20.5334 C   0  0  0  0  0  0  0  0  0  0  0  0
    4.0390  -49.9957  -19.9592 C   0  0  0  0  0  0  0  0  0  0  0  0
    2.9796  -52.1171  -19.6892 O   0  0  0  0  0  0  0  0  0  0  0  0
    1.6186  -52.1197  -19.6428 C   0  0  0  0  0  0  0  0  0  0  0  0
    0.8761  -51.2542  -20.6061 C   0  0  0  0  0  0  0  0  0  0  0  0
   -1.2848  -53.5128  -20.3277 C   0  0  0  0  0  0  0  0  0  0  0  0
   -0.6905  -53.0643  -21.6000 C   0  0  0  0  0  0  0  0  0  0  0  0
   -0.9550  -53.5186  -22.8044 O   0  0  0  0  0  0  0  0  0  0  0  0
   -0.2366  -52.8829  -23.6960 C   0  0  0  0  0  0  0  0  0  0  0  0
    0.5121  -51.9897  -23.0230 N   0  0  0  0  0  0  0  0  0  0  0  0
    0.2653  -52.0641  -21.7140 C   0  0  0  0  0  0  0  0  0  0  0  0
   -0.2334  -53.0861  -25.1382 C   0  0  0  0  0  0  0  0  0  0  0  0
    0.1593  -54.2925  -25.6793 C   0  0  0  0  0  0  0  0  0  0  0  0
    0.1725  -54.5105  -27.0544 C   0  0  0  0  0  0  0  0  0  0  0  0
   -0.2144  -53.5026  -27.9075 C   0  0  0  0  0  0  0  0  0  0  0  0
   -0.6075  -52.2994  -27.3960 C   0  0  0  0  0  0  0  0  0  0  0  0
   -0.6156  -52.0953  -26.0129 C   0  0  0  0  0  0  0  0  0  0  0  0
    5.0567  -47.7276  -20.1451 C   0  0  0  0  0  0  0  0  0  0  0  0
    3.9324  -46.9013  -20.4266 N   0  0  0  0  0  0  0  0  0  0  0  0
    3.3473  -46.3435  -19.2601 C   0  0  0  0  0  0  0  0  0  0  0  0
    3.9996  -45.1377  -18.7327 C   0  0  0  0  0  0  0  0  0  0  0  0
    5.0513  -45.0919  -18.0725 O   0  0  0  0  0  0  0  0  0  0  0  0
    3.3829  -43.8981  -18.9925 O   0  0  0  0  0  0  0  0  0  0  0  0
    2.9360  -43.3990  -18.2365 H   0  0  0  0  0  0  0  0  0  0  0  0
    4.1374  -46.0015  -21.5223 C   0  0  0  0  0  0  0  0  0  0  0  0
    4.0567  -46.5891  -22.8562 C   0  0  0  0  0  0  0  0  0  0  0  0
    4.5163  -46.0150  -24.0189 C   0  0  0  0  0  0  0  0  0  0  0  0
    4.3860  -46.6547  -25.2421 C   0  0  0  0  0  0  0  0  0  0  0  0
    3.7928  -47.8925  -25.3563 C   0  0  0  0  0  0  0  0  0  0  0  0
    3.6802  -48.4980  -26.5899 C   0  0  0  0  0  0  0  0  0  0  0  0
    3.0861  -49.7379  -26.7142 C   0  0  0  0  0  0  0  0  0  0  0  0
    2.6148  -50.3396  -25.5679 C   0  0  0  0  0  0  0  0  0  0  0  0
    2.7301  -49.7247  -24.3200 C   0  0  0  0  0  0  0  0  0  0  0  0
    3.3261  -48.4828  -24.1993 C   0  0  0  0  0  0  0  0  0  0  0  0
    3.4581  -47.8422  -22.9844 C   0  0  0  0  0  0  0  0  0  0  0  0
 10 11  1  0  0  0
 11 12  1  0  0  0
 12 13  1  0  0  0
 13 16  1  0  0  0
 16 17  2  0  0  0
 17 18  1  0  0  0
 18 19  2  0  0  0
 19 20  1  0  0  0
 20 21  2  0  0  0
 13 14  2  0  0  0
 14 15  1  0  0  0
 15  9  1  0  0  0
  9  8  1  0  0  0
  8  7  1  0  0  0
  7  1  1  0  0  0
  1  2  2  0  0  0
  2  3  1  0  0  0
  3  4  2  0  0  0
  4  5  1  0  0  0
  5 22  1  0  0  0
 22 23  1  0  0  0
 23 24  1  0  0  0
 24 25  1  0  0  0
 25 26  2  0  0  0
 25 27  1  0  0  0
 23 29  1  0  0  0
 29 30  1  0  0  0
 30 31  2  0  0  0
 31 32  1  0  0  0
 32 33  2  0  0  0
 33 34  1  0  0  0
 34 35  2  0  0  0
 35 36  1  0  0  0
 36 37  2  0  0  0
 37 38  1  0  0  0
 38 39  2  0  0  0
  5  6  2  0  0  0
 15 11  2  0  0  0
  6  1  1  0  0  0
 21 16  1  0  0  0
 39 30  1  0  0  0
 38 33  1  0  0  0
 27 28  1  0  0  0
M  END
> <minimizedAffinity>
-7.11334

> <CNNscore>
0.1331684142

> <CNNaffinity>
6.3385858536

> <CNN_VS>
0.8440994024

> <CNNaffinity_variance>
0.5160773993

$$$$
[H]OC(=O)C([H])([H])N(C([H])([H])c1c([H])c([H])c([H])c(OC([H])([H])C([H])([H])c2nc(-c3c([H])c([H])c([H])c([H])c3[H])oc2C([H])([H])[H])c1[H])C([H])([H])c1c([H])c([H])c2c([H])c([H])c([H])c([H])c2c1[H]


 39 43  0  0  0  0  0  0  0  0999 V2000
    3.5787  -50.6330  -25.8243 C   0  0  0  0  0  0  0  0  0  0  0  0
    4.2215  -51.0754  -24.7028 C   0  0  0  0  0  0  0  0  0  0  0  0
    3.8521  -52.2698  -24.1313 C   0  0  0  0  0  0  0  0  0  0  0  0
    2.8474  -53.0601  -24.6421 C   0  0  0  0  0  0  0  0  0  0  0  0
    2.1803  -52.6440  -25.7705 C   0  0  0  0  0  0  0  0  0  0  0  0
    2.5570  -51.4520  -26.3308 C   0  0  0  0  0  0  0  0  0  0  0  0
    3.8776  -49.4678  -26.4496 O   0  0  0  0  0  0  0  0  0  0  0  0
    3.2890  -48.2410  -26.5047 C   0  0  0  0  0  0  0  0  0  0  0  0
    3.9142  -47.1213  -25.7408 C   0  0  0  0  0  0  0  0  0  0  0  0
    2.0844  -45.0607  -24.2393 C   0  0  0  0  0  0  0  0  0  0  0  0
    2.7051  -46.2465  -23.6215 C   0  0  0  0  0  0  0  0  0  0  0  0
    2.6028  -46.6361  -22.3706 O   0  0  0  0  0  0  0  0  0  0  0  0
    3.2896  -47.7350  -22.1811 C   0  0  0  0  0  0  0  0  0  0  0  0
    3.8480  -48.0502  -23.3643 N   0  0  0  0  0  0  0  0  0  0  0  0
    3.5137  -47.1530  -24.2934 C   0  0  0  0  0  0  0  0  0  0  0  0
    3.4338  -48.4858  -20.9414 C   0  0  0  0  0  0  0  0  0  0  0  0
    3.9267  -49.7739  -20.9506 C   0  0  0  0  0  0  0  0  0  0  0  0
    4.0723  -50.5124  -19.7792 C   0  0  0  0  0  0  0  0  0  0  0  0
    3.7180  -49.9529  -18.5730 C   0  0  0  0  0  0  0  0  0  0  0  0
    3.2278  -48.6793  -18.5380 C   0  0  0  0  0  0  0  0  0  0  0  0
    3.0874  -47.9500  -19.7225 C   0  0  0  0  0  0  0  0  0  0  0  0
    1.1047  -53.4782  -26.3182 C   0  0  0  0  0  0  0  0  0  0  0  0
   -0.2249  -53.0688  -26.0170 N   0  0  0  0  0  0  0  0  0  0  0  0
   -0.9523  -52.6570  -27.1639 C   0  0  0  0  0  0  0  0  0  0  0  0
   -2.3096  -52.1548  -26.9129 C   0  0  0  0  0  0  0  0  0  0  0  0
   -2.6367  -51.2788  -26.0946 O   0  0  0  0  0  0  0  0  0  0  0  0
   -3.3596  -52.7128  -27.6682 O   0  0  0  0  0  0  0  0  0  0  0  0
   -4.0246  -53.3241  -27.2160 H   0  0  0  0  0  0  0  0  0  0  0  0
   -0.9097  -53.9485  -25.1172 C   0  0  0  0  0  0  0  0  0  0  0  0
   -0.6614  -53.7292  -23.6956 C   0  0  0  0  0  0  0  0  0  0  0  0
   -0.6968  -54.6918  -22.7133 C   0  0  0  0  0  0  0  0  0  0  0  0
   -0.4513  -54.3793  -21.3850 C   0  0  0  0  0  0  0  0  0  0  0  0
   -0.1602  -53.0949  -20.9816 C   0  0  0  0  0  0  0  0  0  0  0  0
    0.0778  -52.8215  -19.6513 C   0  0  0  0  0  0  0  0  0  0  0  0
    0.3691  -51.5371  -19.2374 C   0  0  0  0  0  0  0  0  0  0  0  0
    0.4117  -50.5496  -20.1973 C   0  0  0  0  0  0  0  0  0  0  0  0
    0.1706  -50.8289  -21.5437 C   0  0  0  0  0  0  0  0  0  0  0  0
   -0.1206  -52.1167  -21.9544 C   0  0  0  0  0  0  0  0  0  0  0  0
   -0.3656  -52.4327  -23.2750 C   0  0  0  0  0  0  0  0  0  0  0  0
 10 11  1  0  0  0
 11 12  1  0  0  0
 12 13  1  0  0  0
 13 16  1  0  0  0
 16 17  2  0  0  0
 17 18  1  0  0  0
 18 19  2  0  0  0
 19 20  1  0  0  0
 20 21  2  0  0  0
 13 14  2  0  0  0
 14 15  1  0  0  0
 15  9  1  0  0  0
  9  8  1  0  0  0
  8  7  1  0  0  0
  7  1  1  0  0  0
  1  2  2  0  0  0
  2  3  1  0  0  0
  3  4  2  0  0  0
  4  5  1  0  0  0
  5 22  1  0  0  0
 22 23  1  0  0  0
 23 24  1  0  0  0
 24 25  1  0  0  0
 25 26  2  0  0  0
 25 27  1  0  0  0
 23 29  1  0  0  0
 29 30  1  0  0  0
 30 31  2  0  0  0
 31 32  1  0  0  0
 32 33  2  0  0  0
 33 34  1  0  0  0
 34 35  2  0  0  0
 35 36  1  0  0  0
 36 37  2  0  0  0
 37 38  1  0  0  0
 38 39  2  0  0  0
  5  6  2  0  0  0
 15 11  2  0  0  0
  6  1  1  0  0  0
 21 16  1  0  0  0
 39 30  1  0  0  0
 38 33  1  0  0  0
 27 28  1  0  0  0
M  END
> <minimizedAffinity>
-8.31378

> <CNNscore>
0.1239472553

> <CNNaffinity>
6.1863541603

> <CNN_VS>
0.7667816281

> <CNNaffinity_variance>
1.5376552343

$$$$
[H]OC(=O)C([H])([H])N(C([H])([H])c1c([H])c([H])c([H])c(OC([H])([H])C([H])([H])c2nc(-c3c([H])c([H])c([H])c([H])c3[H])oc2C([H])([H])[H])c1[H])C([H])([H])c1c([H])c([H])c2c([H])c([H])c([H])c([H])c2c1[H]


 39 43  0  0  0  0  0  0  0  0999 V2000
    3.5105  -50.4047  -26.0120 C   0  0  0  0  0  0  0  0  0  0  0  0
    4.1533  -50.8445  -24.8895 C   0  0  0  0  0  0  0  0  0  0  0  0
    3.8473  -52.0790  -24.3679 C   0  0  0  0  0  0  0  0  0  0  0  0
    2.9074  -52.9126  -24.9306 C   0  0  0  0  0  0  0  0  0  0  0  0
    2.2422  -52.5003  -26.0615 C   0  0  0  0  0  0  0  0  0  0  0  0
    2.5554  -51.2681  -26.5718 C   0  0  0  0  0  0  0  0  0  0  0  0
    3.7493  -49.2018  -26.5902 O   0  0  0  0  0  0  0  0  0  0  0  0
    3.8196  -47.9228  -26.1281 C   0  0  0  0  0  0  0  0  0  0  0  0
    2.7229  -46.9777  -26.4920 C   0  0  0  0  0  0  0  0  0  0  0  0
    3.9343  -44.0904  -26.7039 C   0  0  0  0  0  0  0  0  0  0  0  0
    3.5804  -44.9446  -27.8521 C   0  0  0  0  0  0  0  0  0  0  0  0
    3.7075  -44.6543  -29.1274 O   0  0  0  0  0  0  0  0  0  0  0  0
    3.2910  -45.6545  -29.8631 C   0  0  0  0  0  0  0  0  0  0  0  0
    2.8845  -46.6157  -29.0135 N   0  0  0  0  0  0  0  0  0  0  0  0
    3.0447  -46.2211  -27.7491 C   0  0  0  0  0  0  0  0  0  0  0  0
    3.2648  -45.7327  -31.3173 C   0  0  0  0  0  0  0  0  0  0  0  0
    4.1439  -44.9917  -32.0791 C   0  0  0  0  0  0  0  0  0  0  0  0
    4.1373  -45.0482  -33.4703 C   0  0  0  0  0  0  0  0  0  0  0  0
    3.2337  -45.8615  -34.1146 C   0  0  0  0  0  0  0  0  0  0  0  0
    2.3533  -46.6049  -33.3824 C   0  0  0  0  0  0  0  0  0  0  0  0
    2.3719  -46.5379  -31.9861 C   0  0  0  0  0  0  0  0  0  0  0  0
    1.2353  -53.3809  -26.6643 C   0  0  0  0  0  0  0  0  0  0  0  0
   -0.1135  -53.1594  -26.2671 N   0  0  0  0  0  0  0  0  0  0  0  0
   -0.9517  -52.7668  -27.3429 C   0  0  0  0  0  0  0  0  0  0  0  0
   -2.2749  -52.2521  -26.9664 C   0  0  0  0  0  0  0  0  0  0  0  0
   -2.5301  -51.4769  -26.0293 O   0  0  0  0  0  0  0  0  0  0  0  0
   -3.3785  -52.6703  -27.7355 O   0  0  0  0  0  0  0  0  0  0  0  0
   -4.0487  -53.3101  -27.3333 H   0  0  0  0  0  0  0  0  0  0  0  0
   -0.6334  -54.1737  -25.3992 C   0  0  0  0  0  0  0  0  0  0  0  0
   -0.5637  -53.8891  -23.9691 C   0  0  0  0  0  0  0  0  0  0  0  0
   -0.9124  -54.7536  -22.9573 C   0  0  0  0  0  0  0  0  0  0  0  0
   -0.8152  -54.3841  -21.6245 C   0  0  0  0  0  0  0  0  0  0  0  0
   -0.3662  -53.1383  -21.2458 C   0  0  0  0  0  0  0  0  0  0  0  0
   -0.2835  -52.8057  -19.9102 C   0  0  0  0  0  0  0  0  0  0  0  0
    0.1641  -51.5591  -19.5213 C   0  0  0  0  0  0  0  0  0  0  0  0
    0.5210  -50.6696  -20.5111 C   0  0  0  0  0  0  0  0  0  0  0  0
    0.4366  -51.0086  -21.8627 C   0  0  0  0  0  0  0  0  0  0  0  0
   -0.0121  -52.2584  -22.2485 C   0  0  0  0  0  0  0  0  0  0  0  0
   -0.1106  -52.6308  -23.5734 C   0  0  0  0  0  0  0  0  0  0  0  0
 10 11  1  0  0  0
 11 12  1  0  0  0
 12 13  1  0  0  0
 13 16  1  0  0  0
 16 17  2  0  0  0
 17 18  1  0  0  0
 18 19  2  0  0  0
 19 20  1  0  0  0
 20 21  2  0  0  0
 13 14  2  0  0  0
 14 15  1  0  0  0
 15  9  1  0  0  0
  9  8  1  0  0  0
  8  7  1  0  0  0
  7  1  1  0  0  0
  1  2  2  0  0  0
  2  3  1  0  0  0
  3  4  2  0  0  0
  4  5  1  0  0  0
  5 22  1  0  0  0
 22 23  1  0  0  0
 23 24  1  0  0  0
 24 25  1  0  0  0
 25 26  2  0  0  0
 25 27  1  0  0  0
 23 29  1  0  0  0
 29 30  1  0  0  0
 30 31  2  0  0  0
 31 32  1  0  0  0
 32 33  2  0  0  0
 33 34  1  0  0  0
 34 35  2  0  0  0
 35 36  1  0  0  0
 36 37  2  0  0  0
 37 38  1  0  0  0
 38 39  2  0  0  0
  5  6  2  0  0  0
 15 11  2  0  0  0
  6  1  1  0  0  0
 21 16  1  0  0  0
 39 30  1  0  0  0
 38 33  1  0  0  0
 27 28  1  0  0  0
M  END
> <minimizedAffinity>
-9.27176

> <CNNscore>
0.1194969788

> <CNNaffinity>
5.7393355370

> <CNN_VS>
0.6858332753

> <CNNaffinity_variance>
1.6546608210

$$$$
[H]OC(=O)C([H])([H])N(C([H])([H])c1c([H])c([H])c([H])c(OC([H])([H])C([H])([H])c2nc(-c3c([H])c([H])c([H])c([H])c3[H])oc2C([H])([H])[H])c1[H])C([H])([H])c1c([H])c([H])c2c([H])c([H])c([H])c([H])c2c1[H]


 39 43  0  0  0  0  0  0  0  0999 V2000
    1.2773  -49.0261  -20.4538 C   0  0  0  0  0  0  0  0  0  0  0  0
    1.7779  -49.2846  -19.2092 C   0  0  0  0  0  0  0  0  0  0  0  0
    2.8139  -48.5254  -18.7195 C   0  0  0  0  0  0  0  0  0  0  0  0
    3.3844  -47.4959  -19.4333 C   0  0  0  0  0  0  0  0  0  0  0  0
    2.9038  -47.2091  -20.6896 C   0  0  0  0  0  0  0  0  0  0  0  0
    1.8715  -47.9728  -21.1670 C   0  0  0  0  0  0  0  0  0  0  0  0
    0.2600  -49.7263  -21.0133 O   0  0  0  0  0  0  0  0  0  0  0  0
    0.0009  -51.0521  -21.1851 C   0  0  0  0  0  0  0  0  0  0  0  0
    0.9402  -51.8538  -22.0237 C   0  0  0  0  0  0  0  0  0  0  0  0
   -0.5794  -54.5976  -21.9175 C   0  0  0  0  0  0  0  0  0  0  0  0
   -0.4520  -53.7481  -23.1156 C   0  0  0  0  0  0  0  0  0  0  0  0
   -0.9391  -53.9848  -24.3129 O   0  0  0  0  0  0  0  0  0  0  0  0
   -0.6281  -53.0090  -25.1292 C   0  0  0  0  0  0  0  0  0  0  0  0
    0.0854  -52.1199  -24.4140 N   0  0  0  0  0  0  0  0  0  0  0  0
    0.2224  -52.5353  -23.1536 C   0  0  0  0  0  0  0  0  0  0  0  0
   -0.9765  -52.8890  -26.5383 C   0  0  0  0  0  0  0  0  0  0  0  0
   -0.0816  -53.2605  -27.5199 C   0  0  0  0  0  0  0  0  0  0  0  0
   -0.3907  -53.1537  -28.8733 C   0  0  0  0  0  0  0  0  0  0  0  0
   -1.6192  -52.6654  -29.2548 C   0  0  0  0  0  0  0  0  0  0  0  0
   -2.5221  -52.2912  -28.3018 C   0  0  0  0  0  0  0  0  0  0  0  0
   -2.1976  -52.4043  -26.9466 C   0  0  0  0  0  0  0  0  0  0  0  0
    3.5099  -46.1167  -21.4589 C   0  0  0  0  0  0  0  0  0  0  0  0
    3.7094  -46.3594  -22.8472 N   0  0  0  0  0  0  0  0  0  0  0  0
    3.5448  -45.1963  -23.6435 C   0  0  0  0  0  0  0  0  0  0  0  0
    2.4319  -45.2305  -24.6015 C   0  0  0  0  0  0  0  0  0  0  0  0
    2.4242  -45.7926  -25.7097 O   0  0  0  0  0  0  0  0  0  0  0  0
    1.2446  -44.5625  -24.2433 O   0  0  0  0  0  0  0  0  0  0  0  0
    0.9928  -43.7090  -24.7214 H   0  0  0  0  0  0  0  0  0  0  0  0
    4.8607  -47.1626  -23.1329 C   0  0  0  0  0  0  0  0  0  0  0  0
    4.5992  -48.5590  -23.4686 C   0  0  0  0  0  0  0  0  0  0  0  0
    4.8908  -49.6463  -22.6777 C   0  0  0  0  0  0  0  0  0  0  0  0
    4.6071  -50.9387  -23.0916 C   0  0  0  0  0  0  0  0  0  0  0  0
    4.0209  -51.2002  -24.3103 C   0  0  0  0  0  0  0  0  0  0  0  0
    3.7540  -52.4990  -24.6887 C   0  0  0  0  0  0  0  0  0  0  0  0
    3.1678  -52.7707  -25.9087 C   0  0  0  0  0  0  0  0  0  0  0  0
    2.8636  -51.7030  -26.7246 C   0  0  0  0  0  0  0  0  0  0  0  0
    3.1345  -50.3889  -26.3392 C   0  0  0  0  0  0  0  0  0  0  0  0
    3.7215  -50.1206  -25.1163 C   0  0  0  0  0  0  0  0  0  0  0  0
    4.0059  -48.8362  -24.6999 C   0  0  0  0  0  0  0  0  0  0  0  0
 10 11  1  0  0  0
 11 12  1  0  0  0
 12 13  1  0  0  0
 13 16  1  0  0  0
 16 17  2  0  0  0
 17 18  1  0  0  0
 18 19  2  0  0  0
 19 20  1  0  0  0
 20 21  2  0  0  0
 13 14  2  0  0  0
 14 15  1  0  0  0
 15  9  1  0  0  0
  9  8  1  0  0  0
  8  7  1  0  0  0
  7  1  1  0  0  0
  1  2  2  0  0  0
  2  3  1  0  0  0
  3  4  2  0  0  0
  4  5  1  0  0  0
  5 22  1  0  0  0
 22 23  1  0  0  0
 23 24  1  0  0  0
 24 25  1  0  0  0
 25 26  2  0  0  0
 25 27  1  0  0  0
 23 29  1  0  0  0
 29 30  1  0  0  0
 30 31  2  0  0  0
 31 32  1  0  0  0
 32 33  2  0  0  0
 33 34  1  0  0  0
 34 35  2  0  0  0
 35 36  1  0  0  0
 36 37  2  0  0  0
 37 38  1  0  0  0
 38 39  2  0  0  0
  5  6  2  0  0  0
 15 11  2  0  0  0
  6  1  1  0  0  0
 21 16  1  0  0  0
 39 30  1  0  0  0
 38 33  1  0  0  0
 27 28  1  0  0  0
M  END
> <minimizedAffinity>
-8.13854

> <CNNscore>
0.1157416850

> <CNNaffinity>
6.1771087646

> <CNN_VS>
0.7149489522

> <CNNaffinity_variance>
0.7956154346

$$$$
[H]c1nc([H])c(N([H])C2([H])C([H])([H])N(C(=O)c3c(C([H])([H])[H])noc3C([H])([H])[H])C2([H])[H])c([H])c1N1C(=O)c2c([H])c([H])c(Cl)c([H])c2C([H])([H])C1([H])[H]


 33 37  0  0  0  0  0  0  0  0999 V2000
    3.7151  -50.5399  -23.3790 C   0  0  0  0  0  0  0  0  0  0  0  0
    5.0949  -50.7924  -23.3706 C   0  0  0  0  0  0  0  0  0  0  0  0
    5.7560  -50.8753  -22.2062 N   0  0  0  0  0  0  0  0  0  0  0  0
    5.1236  -50.7204  -21.0170 C   0  0  0  0  0  0  0  0  0  0  0  0
    3.7671  -50.4698  -20.9467 C   0  0  0  0  0  0  0  0  0  0  0  0
    3.0877  -50.3851  -22.1639 C   0  0  0  0  0  0  0  0  0  0  0  0
    3.0948  -50.3190  -19.7074 N   0  0  0  0  0  0  0  0  0  0  0  0
    3.3719  -49.1290  -18.9333 C   0  0  0  0  0  0  0  0  0  0  0  0
    2.1868  -48.6249  -18.1820 C   0  0  0  0  0  0  0  0  0  0  0  0
    1.2331  -49.6823  -17.7930 C   0  0  0  0  0  0  0  0  0  0  0  0
    0.2857  -49.3260  -16.8354 C   0  0  0  0  0  0  0  0  0  0  0  0
   -0.6613  -50.2542  -16.3899 C   0  0  0  0  0  0  0  0  0  0  0  0
   -1.8618  -49.8194  -15.1867 Cl  0  0  0  0  0  0  0  0  0  0  0  0
   -0.6869  -51.5502  -16.8835 C   0  0  0  0  0  0  0  0  0  0  0  0
    0.2729  -51.8685  -17.8368 C   0  0  0  0  0  0  0  0  0  0  0  0
    1.2020  -50.9504  -18.2719 C   0  0  0  0  0  0  0  0  0  0  0  0
    2.1788  -51.3313  -19.2936 C   0  0  0  0  0  0  0  0  0  0  0  0
    2.1845  -52.4918  -19.7607 O   0  0  0  0  0  0  0  0  0  0  0  0
    3.0527  -50.4678  -24.6237 N   0  0  0  0  0  0  0  0  0  0  0  0
    2.6658  -49.5419  -24.9280 H   0  0  0  0  0  0  0  0  0  0  0  0
   -0.1107  -52.7791  -24.2465 C   0  0  0  0  0  0  0  0  0  0  0  0
   -1.0090  -52.1470  -25.0082 O   0  0  0  0  0  0  0  0  0  0  0  0
    1.1768  -52.6196  -24.7734 N   0  0  0  0  0  0  0  0  0  0  0  0
    1.5710  -51.8820  -26.0252 C   0  0  0  0  0  0  0  0  0  0  0  0
    2.9263  -51.6601  -25.4412 C   0  0  0  0  0  0  0  0  0  0  0  0
    2.5512  -52.8964  -24.6190 C   0  0  0  0  0  0  0  0  0  0  0  0
   -0.5485  -51.3969  -21.5110 C   0  0  0  0  0  0  0  0  0  0  0  0
   -0.8360  -52.8153  -21.8678 C   0  0  0  0  0  0  0  0  0  0  0  0
   -1.3515  -53.7188  -21.0222 N   0  0  0  0  0  0  0  0  0  0  0  0
   -1.4803  -54.8269  -21.6214 O   0  0  0  0  0  0  0  0  0  0  0  0
   -1.0593  -54.7202  -22.8938 C   0  0  0  0  0  0  0  0  0  0  0  0
   -1.0969  -55.8537  -23.8201 C   0  0  0  0  0  0  0  0  0  0  0  0
   -0.6344  -53.4529  -23.1092 C   0  0  0  0  0  0  0  0  0  0  0  0
 27 28  1  0  0  0
 28 29  2  0  0  0
 29 30  1  0  0  0
 30 31  1  0  0  0
 31 32  1  0  0  0
 31 33  2  0  0  0
 33 21  1  0  0  0
 21 22  2  0  0  0
 21 23  1  0  0  0
 23 24  1  0  0  0
 24 25  1  0  0  0
 25 19  1  0  0  0
 19  1  1  0  0  0
  1  2  2  0  0  0
  2  3  1  0  0  0
  3  4  2  0  0  0
  4  5  1  0  0  0
  5  7  1  0  0  0
  7  8  1  0  0  0
  8  9  1  0  0  0
  9 10  1  0  0  0
 10 11  2  0  0  0
 11 12  1  0  0  0
 12 13  1  0  0  0
 12 14  2  0  0  0
 14 15  1  0  0  0
 15 16  2  0  0  0
 16 17  1  0  0  0
 17 18  2  0  0  0
  5  6  2  0  0  0
 25 26  1  0  0  0
 33 28  1  0  0  0
 26 23  1  0  0  0
  6  1  1  0  0  0
 17  7  1  0  0  0
 16 10  1  0  0  0
 19 20  1  0  0  0
M  END
> <minimizedAffinity>
-8.27432

> <CNNscore>
0.6271924973

> <CNNaffinity>
7.1601471901

> <CNN_VS>
4.4907903671

> <CNNaffinity_variance>
0.0978455916

$$$$
[H]c1nc([H])c(N([H])C2([H])C([H])([H])N(C(=O)c3c(C([H])([H])[H])noc3C([H])([H])[H])C2([H])[H])c([H])c1N1C(=O)c2c([H])c([H])c(Cl)c([H])c2C([H])([H])C1([H])[H]


 33 37  0  0  0  0  0  0  0  0999 V2000
    0.1106  -53.5582  -21.7498 C   0  0  0  0  0  0  0  0  0  0  0  0
   -1.0737  -54.3089  -21.7110 C   0  0  0  0  0  0  0  0  0  0  0  0
   -1.8753  -54.2449  -20.6372 N   0  0  0  0  0  0  0  0  0  0  0  0
   -1.5732  -53.4652  -19.5700 C   0  0  0  0  0  0  0  0  0  0  0  0
   -0.4249  -52.6984  -19.5367 C   0  0  0  0  0  0  0  0  0  0  0  0
    0.4032  -52.7718  -20.6589 C   0  0  0  0  0  0  0  0  0  0  0  0
   -0.1068  -51.8703  -18.4304 N   0  0  0  0  0  0  0  0  0  0  0  0
    1.0078  -50.9594  -18.5717 C   0  0  0  0  0  0  0  0  0  0  0  0
    0.8107  -49.6699  -17.8496 C   0  0  0  0  0  0  0  0  0  0  0  0
   -0.0411  -49.7823  -16.6493 C   0  0  0  0  0  0  0  0  0  0  0  0
   -0.0050  -48.6996  -15.7730 C   0  0  0  0  0  0  0  0  0  0  0  0
   -0.7687  -48.7055  -14.6010 C   0  0  0  0  0  0  0  0  0  0  0  0
   -0.7355  -47.3486  -13.4895 Cl  0  0  0  0  0  0  0  0  0  0  0  0
   -1.5804  -49.7823  -14.2759 C   0  0  0  0  0  0  0  0  0  0  0  0
   -1.5904  -50.8431  -15.1736 C   0  0  0  0  0  0  0  0  0  0  0  0
   -0.8371  -50.8313  -16.3259 C   0  0  0  0  0  0  0  0  0  0  0  0
   -0.9000  -51.9661  -17.2486 C   0  0  0  0  0  0  0  0  0  0  0  0
   -1.6214  -52.9541  -16.9866 O   0  0  0  0  0  0  0  0  0  0  0  0
    0.9242  -53.6454  -22.9004 N   0  0  0  0  0  0  0  0  0  0  0  0
    0.9860  -54.5670  -23.3968 H   0  0  0  0  0  0  0  0  0  0  0  0
   -0.0554  -51.9639  -26.3216 C   0  0  0  0  0  0  0  0  0  0  0  0
   -1.0950  -51.2013  -25.9687 O   0  0  0  0  0  0  0  0  0  0  0  0
    0.8671  -52.0502  -25.2719 N   0  0  0  0  0  0  0  0  0  0  0  0
    0.7861  -51.3879  -23.9223 C   0  0  0  0  0  0  0  0  0  0  0  0
    1.6440  -52.4733  -23.3627 C   0  0  0  0  0  0  0  0  0  0  0  0
    2.0874  -52.5970  -24.8233 C   0  0  0  0  0  0  0  0  0  0  0  0
   -2.6896  -52.3024  -27.9129 C   0  0  0  0  0  0  0  0  0  0  0  0
   -1.3096  -52.6488  -28.3573 C   0  0  0  0  0  0  0  0  0  0  0  0
   -1.0083  -53.1663  -29.5566 N   0  0  0  0  0  0  0  0  0  0  0  0
    0.2429  -53.3458  -29.6326 O   0  0  0  0  0  0  0  0  0  0  0  0
    0.8393  -52.9580  -28.4916 C   0  0  0  0  0  0  0  0  0  0  0  0
    2.2884  -53.0529  -28.3037 C   0  0  0  0  0  0  0  0  0  0  0  0
   -0.1065  -52.5025  -27.6365 C   0  0  0  0  0  0  0  0  0  0  0  0
 27 28  1  0  0  0
 28 29  2  0  0  0
 29 30  1  0  0  0
 30 31  1  0  0  0
 31 32  1  0  0  0
 31 33  2  0  0  0
 33 21  1  0  0  0
 21 22  2  0  0  0
 21 23  1  0  0  0
 23 24  1  0  0  0
 24 25  1  0  0  0
 25 19  1  0  0  0
 19  1  1  0  0  0
  1  2  2  0  0  0
  2  3  1  0  0  0
  3  4  2  0  0  0
  4  5  1  0  0  0
  5  7  1  0  0  0
  7  8  1  0  0  0
  8  9  1  0  0  0
  9 10  1  0  0  0
 10 11  2  0  0  0
 11 12  1  0  0  0
 12 13  1  0  0  0
 12 14  2  0  0  0
 14 15  1  0  0  0
 15 16  2  0  0  0
 16 17  1  0  0  0
 17 18  2  0  0  0
  5  6  2  0  0  0
 25 26  1  0  0  0
 33 28  1  0  0  0
 26 23  1  0  0  0
  6  1  1  0  0  0
 17  7  1  0  0  0
 16 10  1  0  0  0
 19 20  1  0  0  0
M  END
> <minimizedAffinity>
-8.69894

> <CNNscore>
0.5613699555

> <CNNaffinity>
6.9331674576

> <CNN_VS>
3.8920719624

> <CNNaffinity_variance>
0.1567785442

$$$$
[H]c1nc([H])c(N([H])C2([H])C([H])([H])N(C(=O)c3c(C([H])([H])[H])noc3C([H])([H])[H])C2([H])[H])c([H])c1N1C(=O)c2c([H])c([H])c(Cl)c([H])c2C([H])([H])C1([H])[H]


 33 37  0  0  0  0  0  0  0  0999 V2000
    0.5936  -52.4128  -24.6540 C   0  0  0  0  0  0  0  0  0  0  0  0
   -0.2258  -53.4518  -25.1198 C   0  0  0  0  0  0  0  0  0  0  0  0
   -0.8584  -54.2514  -24.2480 N   0  0  0  0  0  0  0  0  0  0  0  0
   -0.7297  -54.0856  -22.9086 C   0  0  0  0  0  0  0  0  0  0  0  0
    0.0593  -53.0846  -22.3764 C   0  0  0  0  0  0  0  0  0  0  0  0
    0.7139  -52.2575  -23.2918 C   0  0  0  0  0  0  0  0  0  0  0  0
    0.1900  -52.8955  -20.9772 N   0  0  0  0  0  0  0  0  0  0  0  0
    1.4007  -52.2685  -20.4943 C   0  0  0  0  0  0  0  0  0  0  0  0
    1.1804  -51.4013  -19.3017 C   0  0  0  0  0  0  0  0  0  0  0  0
    0.0553  -51.8334  -18.4493 C   0  0  0  0  0  0  0  0  0  0  0  0
   -0.0011  -51.2629  -17.1794 C   0  0  0  0  0  0  0  0  0  0  0  0
   -1.0224  -51.6078  -16.2878 C   0  0  0  0  0  0  0  0  0  0  0  0
   -1.1079  -50.8960  -14.6866 Cl  0  0  0  0  0  0  0  0  0  0  0  0
   -2.0045  -52.5230  -16.6371 C   0  0  0  0  0  0  0  0  0  0  0  0
   -1.9153  -53.0705  -17.9112 C   0  0  0  0  0  0  0  0  0  0  0  0
   -0.9081  -52.7266  -18.7846 C   0  0  0  0  0  0  0  0  0  0  0  0
   -0.8721  -53.3175  -20.1235 C   0  0  0  0  0  0  0  0  0  0  0  0
   -1.7419  -54.1465  -20.4718 O   0  0  0  0  0  0  0  0  0  0  0  0
    1.2362  -51.5872  -25.6020 N   0  0  0  0  0  0  0  0  0  0  0  0
    0.6771  -50.8271  -26.0592 H   0  0  0  0  0  0  0  0  0  0  0  0
    3.5481  -48.5313  -26.5007 C   0  0  0  0  0  0  0  0  0  0  0  0
    3.8788  -48.0680  -25.2913 O   0  0  0  0  0  0  0  0  0  0  0  0
    3.3932  -49.9224  -26.4665 N   0  0  0  0  0  0  0  0  0  0  0  0
    3.5811  -50.8379  -25.2862 C   0  0  0  0  0  0  0  0  0  0  0  0
    2.6360  -51.8066  -25.9152 C   0  0  0  0  0  0  0  0  0  0  0  0
    3.0694  -51.0860  -27.1951 C   0  0  0  0  0  0  0  0  0  0  0  0
    5.1579  -48.6367  -29.1432 C   0  0  0  0  0  0  0  0  0  0  0  0
    4.1627  -47.6080  -28.7269 C   0  0  0  0  0  0  0  0  0  0  0  0
    3.8089  -46.5518  -29.4727 N   0  0  0  0  0  0  0  0  0  0  0  0
    2.9451  -45.8687  -28.8476 O   0  0  0  0  0  0  0  0  0  0  0  0
    2.6784  -46.4324  -27.6565 C   0  0  0  0  0  0  0  0  0  0  0  0
    1.7107  -45.8513  -26.7236 C   0  0  0  0  0  0  0  0  0  0  0  0
    3.4300  -47.5506  -27.5235 C   0  0  0  0  0  0  0  0  0  0  0  0
 27 28  1  0  0  0
 28 29  2  0  0  0
 29 30  1  0  0  0
 30 31  1  0  0  0
 31 32  1  0  0  0
 31 33  2  0  0  0
 33 21  1  0  0  0
 21 22  2  0  0  0
 21 23  1  0  0  0
 23 24  1  0  0  0
 24 25  1  0  0  0
 25 19  1  0  0  0
 19  1  1  0  0  0
  1  2  2  0  0  0
  2  3  1  0  0  0
  3  4  2  0  0  0
  4  5  1  0  0  0
  5  7  1  0  0  0
  7  8  1  0  0  0
  8  9  1  0  0  0
  9 10  1  0  0  0
 10 11  2  0  0  0
 11 12  1  0  0  0
 12 13  1  0  0  0
 12 14  2  0  0  0
 14 15  1  0  0  0
 15 16  2  0  0  0
 16 17  1  0  0  0
 17 18  2  0  0  0
  5  6  2  0  0  0
 25 26  1  0  0  0
 33 28  1  0  0  0
 26 23  1  0  0  0
  6  1  1  0  0  0
 17  7  1  0  0  0
 16 10  1  0  0  0
 19 20  1  0  0  0
M  END
> <minimizedAffinity>
-8.24213

> <CNNscore>
0.5271189213

> <CNNaffinity>
6.9152007103

> <CNN_VS>
3.6451332569

> <CNNaffinity_variance>
0.3482944667

$$$$
[H]c1nc([H])c(N([H])C2([H])C([H])([H])N(C(=O)c3c(C([H])([H])[H])noc3C([H])([H])[H])C2([H])[H])c([H])c1N1C(=O)c2c([H])c([H])c(Cl)c([H])c2C([H])([H])C1([H])[H]


 33 37  0  0  0  0  0  0  0  0999 V2000
    5.0893  -51.1559  -21.3906 C   0  0  0  0  0  0  0  0  0  0  0  0
    6.1964  -50.3069  -21.2452 C   0  0  0  0  0  0  0  0  0  0  0  0
    6.2200  -49.3956  -20.2610 N   0  0  0  0  0  0  0  0  0  0  0  0
    5.1915  -49.2660  -19.3872 C   0  0  0  0  0  0  0  0  0  0  0  0
    4.0689  -50.0666  -19.4680 C   0  0  0  0  0  0  0  0  0  0  0  0
    4.0534  -51.0121  -20.4959 C   0  0  0  0  0  0  0  0  0  0  0  0
    2.9939  -49.9470  -18.5511 N   0  0  0  0  0  0  0  0  0  0  0  0
    1.8785  -49.1075  -18.9295 C   0  0  0  0  0  0  0  0  0  0  0  0
    0.5657  -49.6128  -18.4353 C   0  0  0  0  0  0  0  0  0  0  0  0
    0.6568  -50.3795  -17.1773 C   0  0  0  0  0  0  0  0  0  0  0  0
   -0.5466  -50.6030  -16.5114 C   0  0  0  0  0  0  0  0  0  0  0  0
   -0.5732  -51.3126  -15.3062 C   0  0  0  0  0  0  0  0  0  0  0  0
   -2.0809  -51.6040  -14.4579 Cl  0  0  0  0  0  0  0  0  0  0  0  0
    0.5898  -51.8126  -14.7392 C   0  0  0  0  0  0  0  0  0  0  0  0
    1.7699  -51.5702  -15.4318 C   0  0  0  0  0  0  0  0  0  0  0  0
    1.7898  -50.8716  -16.6180 C   0  0  0  0  0  0  0  0  0  0  0  0
    3.0581  -50.6617  -17.3182 C   0  0  0  0  0  0  0  0  0  0  0  0
    4.1262  -51.0989  -16.8354 O   0  0  0  0  0  0  0  0  0  0  0  0
    5.1046  -52.1077  -22.4333 N   0  0  0  0  0  0  0  0  0  0  0  0
    5.5572  -53.0361  -22.2522 H   0  0  0  0  0  0  0  0  0  0  0  0
    1.1881  -52.1535  -22.8216 C   0  0  0  0  0  0  0  0  0  0  0  0
    0.8474  -50.9531  -22.3424 O   0  0  0  0  0  0  0  0  0  0  0  0
    2.4350  -52.0916  -23.4555 N   0  0  0  0  0  0  0  0  0  0  0  0
    3.3132  -50.8823  -23.6369 C   0  0  0  0  0  0  0  0  0  0  0  0
    4.5006  -51.7832  -23.7122 C   0  0  0  0  0  0  0  0  0  0  0  0
    3.4428  -52.8061  -24.1363 C   0  0  0  0  0  0  0  0  0  0  0  0
    0.4981  -53.2291  -20.0016 C   0  0  0  0  0  0  0  0  0  0  0  0
   -0.0655  -53.6767  -21.3069 C   0  0  0  0  0  0  0  0  0  0  0  0
   -0.9904  -54.6376  -21.4423 N   0  0  0  0  0  0  0  0  0  0  0  0
   -1.2649  -54.7842  -22.6697 O   0  0  0  0  0  0  0  0  0  0  0  0
   -0.5401  -53.9311  -23.4144 C   0  0  0  0  0  0  0  0  0  0  0  0
   -0.6584  -53.8826  -24.8731 C   0  0  0  0  0  0  0  0  0  0  0  0
    0.2476  -53.1955  -22.5949 C   0  0  0  0  0  0  0  0  0  0  0  0
 27 28  1  0  0  0
 28 29  2  0  0  0
 29 30  1  0  0  0
 30 31  1  0  0  0
 31 32  1  0  0  0
 31 33  2  0  0  0
 33 21  1  0  0  0
 21 22  2  0  0  0
 21 23  1  0  0  0
 23 24  1  0  0  0
 24 25  1  0  0  0
 25 19  1  0  0  0
 19  1  1  0  0  0
  1  2  2  0  0  0
  2  3  1  0  0  0
  3  4  2  0  0  0
  4  5  1  0  0  0
  5  7  1  0  0  0
  7  8  1  0  0  0
  8  9  1  0  0  0
  9 10  1  0  0  0
 10 11  2  0  0  0
 11 12  1  0  0  0
 12 13  1  0  0  0
 12 14  2  0  0  0
 14 15  1  0  0  0
 15 16  2  0  0  0
 16 17  1  0  0  0
 17 18  2  0  0  0
  5  6  2  0  0  0
 25 26  1  0  0  0
 33 28  1  0  0  0
 26 23  1  0  0  0
  6  1  1  0  0  0
 17  7  1  0  0  0
 16 10  1  0  0  0
 19 20  1  0  0  0
M  END
> <minimizedAffinity>
-8.03784

> <CNNscore>
0.4643825889

> <CNNaffinity>
6.8348550797

> <CNN_VS>
3.1739876270

> <CNNaffinity_variance>
0.1624296457

$$$$
[H]c1nc([H])c(N([H])C2([H])C([H])([H])N(C(=O)c3c(C([H])([H])[H])noc3C([H])([H])[H])C2([H])[H])c([H])c1N1C(=O)c2c([H])c([H])c(Cl)c([H])c2C([H])([H])C1([H])[H]


 33 37  0  0  0  0  0  0  0  0999 V2000
    3.1414  -48.3080  -23.6228 C   0  0  0  0  0  0  0  0  0  0  0  0
    3.3209  -47.2247  -22.7499 C   0  0  0  0  0  0  0  0  0  0  0  0
    3.7150  -46.0346  -23.2275 N   0  0  0  0  0  0  0  0  0  0  0  0
    3.9493  -45.8411  -24.5488 C   0  0  0  0  0  0  0  0  0  0  0  0
    3.7935  -46.8605  -25.4676 C   0  0  0  0  0  0  0  0  0  0  0  0
    3.3832  -48.0956  -24.9609 C   0  0  0  0  0  0  0  0  0  0  0  0
    4.0240  -46.6643  -26.8529 N   0  0  0  0  0  0  0  0  0  0  0  0
    5.3460  -46.9563  -27.3618 C   0  0  0  0  0  0  0  0  0  0  0  0
    5.3358  -47.5136  -28.7447 C   0  0  0  0  0  0  0  0  0  0  0  0
    4.1978  -47.0541  -29.5648 C   0  0  0  0  0  0  0  0  0  0  0  0
    4.3024  -47.2835  -30.9352 C   0  0  0  0  0  0  0  0  0  0  0  0
    3.2832  -46.8815  -31.8049 C   0  0  0  0  0  0  0  0  0  0  0  0
    3.3997  -47.1658  -33.5322 Cl  0  0  0  0  0  0  0  0  0  0  0  0
    2.1439  -46.2455  -31.3341 C   0  0  0  0  0  0  0  0  0  0  0  0
    2.0753  -46.0342  -29.9623 C   0  0  0  0  0  0  0  0  0  0  0  0
    3.0813  -46.4327  -29.1111 C   0  0  0  0  0  0  0  0  0  0  0  0
    2.9497  -46.2045  -27.6711 C   0  0  0  0  0  0  0  0  0  0  0  0
    1.9356  -45.6336  -27.2120 O   0  0  0  0  0  0  0  0  0  0  0  0
    2.7180  -49.5423  -23.0839 N   0  0  0  0  0  0  0  0  0  0  0  0
    2.0962  -49.5289  -22.2396 H   0  0  0  0  0  0  0  0  0  0  0  0
    0.2279  -52.5813  -23.3186 C   0  0  0  0  0  0  0  0  0  0  0  0
   -0.4870  -52.2715  -24.4047 O   0  0  0  0  0  0  0  0  0  0  0  0
    1.5441  -52.1227  -23.4516 N   0  0  0  0  0  0  0  0  0  0  0  0
    2.1505  -51.4021  -24.6262 C   0  0  0  0  0  0  0  0  0  0  0  0
    3.1466  -50.7825  -23.7036 C   0  0  0  0  0  0  0  0  0  0  0  0
    2.8144  -52.0092  -22.8491 C   0  0  0  0  0  0  0  0  0  0  0  0
   -0.1352  -51.4859  -20.4458 C   0  0  0  0  0  0  0  0  0  0  0  0
   -0.6395  -52.7762  -20.9958 C   0  0  0  0  0  0  0  0  0  0  0  0
   -1.3543  -53.6691  -20.2966 N   0  0  0  0  0  0  0  0  0  0  0  0
   -1.6342  -54.6553  -21.0399 O   0  0  0  0  0  0  0  0  0  0  0  0
   -1.1227  -54.4717  -22.2698 C   0  0  0  0  0  0  0  0  0  0  0  0
   -1.2969  -55.4593  -23.3368 C   0  0  0  0  0  0  0  0  0  0  0  0
   -0.4736  -53.2839  -22.3008 C   0  0  0  0  0  0  0  0  0  0  0  0
 27 28  1  0  0  0
 28 29  2  0  0  0
 29 30  1  0  0  0
 30 31  1  0  0  0
 31 32  1  0  0  0
 31 33  2  0  0  0
 33 21  1  0  0  0
 21 22  2  0  0  0
 21 23  1  0  0  0
 23 24  1  0  0  0
 24 25  1  0  0  0
 25 19  1  0  0  0
 19  1  1  0  0  0
  1  2  2  0  0  0
  2  3  1  0  0  0
  3  4  2  0  0  0
  4  5  1  0  0  0
  5  7  1  0  0  0
  7  8  1  0  0  0
  8  9  1  0  0  0
  9 10  1  0  0  0
 10 11  2  0  0  0
 11 12  1  0  0  0
 12 13  1  0  0  0
 12 14  2  0  0  0
 14 15  1  0  0  0
 15 16  2  0  0  0
 16 17  1  0  0  0
 17 18  2  0  0  0
  5  6  2  0  0  0
 25 26  1  0  0  0
 33 28  1  0  0  0
 26 23  1  0  0  0
  6  1  1  0  0  0
 17  7  1  0  0  0
 16 10  1  0  0  0
 19 20  1  0  0  0
M  END
> <minimizedAffinity>
-8.16233

> <CNNscore>
0.4359768927

> <CNNaffinity>
6.4678144455

> <CNN_VS>
2.8198175430

> <CNNaffinity_variance>
0.0544363484

$$$$
[H]c1nc([H])c(N([H])C2([H])C([H])([H])N(C(=O)c3c(C([H])([H])[H])noc3C([H])([H])[H])C2([H])[H])c([H])c1N1C(=O)c2c([H])c([H])c(Cl)c([H])c2C([H])([H])C1([H])[H]


 33 37  0  0  0  0  0  0  0  0999 V2000
    3.6136  -49.4553  -22.4430 C   0  0  0  0  0  0  0  0  0  0  0  0
    5.0024  -49.4357  -22.2467 C   0  0  0  0  0  0  0  0  0  0  0  0
    5.5132  -49.6883  -21.0322 N   0  0  0  0  0  0  0  0  0  0  0  0
    4.7178  -49.9668  -19.9702 C   0  0  0  0  0  0  0  0  0  0  0  0
    3.3421  -50.0042  -20.0874 C   0  0  0  0  0  0  0  0  0  0  0  0
    2.8197  -49.7397  -21.3553 C   0  0  0  0  0  0  0  0  0  0  0  0
    2.5027  -50.3069  -18.9854 N   0  0  0  0  0  0  0  0  0  0  0  0
    2.5327  -49.4093  -17.8516 C   0  0  0  0  0  0  0  0  0  0  0  0
    1.2089  -49.2604  -17.1821 C   0  0  0  0  0  0  0  0  0  0  0  0
    0.3473  -50.4540  -17.2916 C   0  0  0  0  0  0  0  0  0  0  0  0
   -0.7513  -50.4930  -16.4355 C   0  0  0  0  0  0  0  0  0  0  0  0
   -1.6291  -51.5821  -16.4515 C   0  0  0  0  0  0  0  0  0  0  0  0
   -3.0179  -51.6441  -15.3813 Cl  0  0  0  0  0  0  0  0  0  0  0  0
   -1.4348  -52.6509  -17.3141 C   0  0  0  0  0  0  0  0  0  0  0  0
   -0.3291  -52.5763  -18.1526 C   0  0  0  0  0  0  0  0  0  0  0  0
    0.5310  -51.5015  -18.1327 C   0  0  0  0  0  0  0  0  0  0  0  0
    1.6697  -51.4630  -19.0519 C   0  0  0  0  0  0  0  0  0  0  0  0
    1.8751  -52.4100  -19.8433 O   0  0  0  0  0  0  0  0  0  0  0  0
    3.1140  -49.1926  -23.7371 N   0  0  0  0  0  0  0  0  0  0  0  0
    2.4331  -48.4042  -23.8564 H   0  0  0  0  0  0  0  0  0  0  0  0
    0.6830  -51.8818  -25.2701 C   0  0  0  0  0  0  0  0  0  0  0  0
   -0.0706  -51.1407  -26.0884 O   0  0  0  0  0  0  0  0  0  0  0  0
    1.9846  -51.3699  -25.2054 N   0  0  0  0  0  0  0  0  0  0  0  0
    2.5400  -50.1794  -25.9408 C   0  0  0  0  0  0  0  0  0  0  0  0
    3.5500  -50.0080  -24.8555 C   0  0  0  0  0  0  0  0  0  0  0  0
    3.2697  -51.4978  -24.6382 C   0  0  0  0  0  0  0  0  0  0  0  0
    0.1055  -54.5320  -26.7627 C   0  0  0  0  0  0  0  0  0  0  0  0
   -0.2276  -54.1949  -25.3495 C   0  0  0  0  0  0  0  0  0  0  0  0
   -0.8388  -55.0290  -24.4964 N   0  0  0  0  0  0  0  0  0  0  0  0
   -0.9776  -54.4543  -23.3765 O   0  0  0  0  0  0  0  0  0  0  0  0
   -0.4673  -53.2113  -23.4243 C   0  0  0  0  0  0  0  0  0  0  0  0
   -0.4908  -52.3189  -22.2636 C   0  0  0  0  0  0  0  0  0  0  0  0
    0.0274  -52.9888  -24.6648 C   0  0  0  0  0  0  0  0  0  0  0  0
 27 28  1  0  0  0
 28 29  2  0  0  0
 29 30  1  0  0  0
 30 31  1  0  0  0
 31 32  1  0  0  0
 31 33  2  0  0  0
 33 21  1  0  0  0
 21 22  2  0  0  0
 21 23  1  0  0  0
 23 24  1  0  0  0
 24 25  1  0  0  0
 25 19  1  0  0  0
 19  1  1  0  0  0
  1  2  2  0  0  0
  2  3  1  0  0  0
  3  4  2  0  0  0
  4  5  1  0  0  0
  5  7  1  0  0  0
  7  8  1  0  0  0
  8  9  1  0  0  0
  9 10  1  0  0  0
 10 11  2  0  0  0
 11 12  1  0  0  0
 12 13  1  0  0  0
 12 14  2  0  0  0
 14 15  1  0  0  0
 15 16  2  0  0  0
 16 17  1  0  0  0
 17 18  2  0  0  0
  5  6  2  0  0  0
 25 26  1  0  0  0
 33 28  1  0  0  0
 26 23  1  0  0  0
  6  1  1  0  0  0
 17  7  1  0  0  0
 16 10  1  0  0  0
 19 20  1  0  0  0
M  END
> <minimizedAffinity>
-8.26975

> <CNNscore>
0.4296014011

> <CNNaffinity>
7.0845818520

> <CNN_VS>
3.0435461998

> <CNNaffinity_variance>
0.2859789729

$$$$
[H]c1nc([H])c(N([H])C2([H])C([H])([H])N(C(=O)c3c(C([H])([H])[H])noc3C([H])([H])[H])C2([H])[H])c([H])c1N1C(=O)c2c([H])c([H])c(Cl)c([H])c2C([H])([H])C1([H])[H]


 33 37  0  0  0  0  0  0  0  0999 V2000
   -0.4101  -53.9297  -23.4884 C   0  0  0  0  0  0  0  0  0  0  0  0
   -1.3521  -54.5581  -22.6605 C   0  0  0  0  0  0  0  0  0  0  0  0
   -1.4922  -54.1678  -21.3846 N   0  0  0  0  0  0  0  0  0  0  0  0
   -0.7406  -53.1688  -20.8601 C   0  0  0  0  0  0  0  0  0  0  0  0
    0.2064  -52.5040  -21.6145 C   0  0  0  0  0  0  0  0  0  0  0  0
    0.3451  -52.9174  -22.9412 C   0  0  0  0  0  0  0  0  0  0  0  0
    0.9883  -51.4496  -21.0782 N   0  0  0  0  0  0  0  0  0  0  0  0
    0.8172  -50.1305  -21.6464 C   0  0  0  0  0  0  0  0  0  0  0  0
    0.9601  -49.0344  -20.6458 C   0  0  0  0  0  0  0  0  0  0  0  0
    1.8672  -49.3613  -19.5281 C   0  0  0  0  0  0  0  0  0  0  0  0
    2.2808  -48.2859  -18.7446 C   0  0  0  0  0  0  0  0  0  0  0  0
    3.1467  -48.4830  -17.6638 C   0  0  0  0  0  0  0  0  0  0  0  0
    3.6741  -47.1392  -16.6668 Cl  0  0  0  0  0  0  0  0  0  0  0  0
    3.6184  -49.7467  -17.3401 C   0  0  0  0  0  0  0  0  0  0  0  0
    3.1841  -50.7939  -18.1438 C   0  0  0  0  0  0  0  0  0  0  0  0
    2.3313  -50.5939  -19.2058 C   0  0  0  0  0  0  0  0  0  0  0  0
    1.8876  -51.7350  -20.0084 C   0  0  0  0  0  0  0  0  0  0  0  0
    2.2934  -52.8887  -19.7447 O   0  0  0  0  0  0  0  0  0  0  0  0
   -0.2974  -54.3625  -24.8275 N   0  0  0  0  0  0  0  0  0  0  0  0
   -0.1083  -55.3781  -25.0073 H   0  0  0  0  0  0  0  0  0  0  0  0
    2.8324  -52.3466  -26.1050 C   0  0  0  0  0  0  0  0  0  0  0  0
    3.4029  -53.2198  -26.9410 O   0  0  0  0  0  0  0  0  0  0  0  0
    1.4401  -52.4948  -26.1175 N   0  0  0  0  0  0  0  0  0  0  0  0
    0.6269  -53.4548  -26.9443 C   0  0  0  0  0  0  0  0  0  0  0  0
   -0.4454  -53.4049  -25.9076 C   0  0  0  0  0  0  0  0  0  0  0  0
    0.2080  -52.0571  -25.5886 C   0  0  0  0  0  0  0  0  0  0  0  0
    3.0848  -49.3201  -26.7063 C   0  0  0  0  0  0  0  0  0  0  0  0
    3.8323  -50.1083  -25.6856 C   0  0  0  0  0  0  0  0  0  0  0  0
    4.7451  -49.5922  -24.8504 N   0  0  0  0  0  0  0  0  0  0  0  0
    5.1972  -50.5109  -24.1053 O   0  0  0  0  0  0  0  0  0  0  0  0
    4.6108  -51.6835  -24.4035 C   0  0  0  0  0  0  0  0  0  0  0  0
    4.9445  -52.9195  -23.6928 C   0  0  0  0  0  0  0  0  0  0  0  0
    3.7265  -51.4871  -25.4098 C   0  0  0  0  0  0  0  0  0  0  0  0
 27 28  1  0  0  0
 28 29  2  0  0  0
 29 30  1  0  0  0
 30 31  1  0  0  0
 31 32  1  0  0  0
 31 33  2  0  0  0
 33 21  1  0  0  0
 21 22  2  0  0  0
 21 23  1  0  0  0
 23 24  1  0  0  0
 24 25  1  0  0  0
 25 19  1  0  0  0
 19  1  1  0  0  0
  1  2  2  0  0  0
  2  3  1  0  0  0
  3  4  2  0  0  0
  4  5  1  0  0  0
  5  7  1  0  0  0
  7  8  1  0  0  0
  8  9  1  0  0  0
  9 10  1  0  0  0
 10 11  2  0  0  0
 11 12  1  0  0  0
 12 13  1  0  0  0
 12 14  2  0  0  0
 14 15  1  0  0  0
 15 16  2  0  0  0
 16 17  1  0  0  0
 17 18  2  0  0  0
  5  6  2  0  0  0
 25 26  1  0  0  0
 33 28  1  0  0  0
 26 23  1  0  0  0
  6  1  1  0  0  0
 17  7  1  0  0  0
 16 10  1  0  0  0
 19 20  1  0  0  0
M  END
> <minimizedAffinity>
-7.99638

> <CNNscore>
0.3835648894

> <CNNaffinity>
7.0345664024

> <CNN_VS>
2.6982126236

> <CNNaffinity_variance>
0.2180445492

$$$$
[H]c1nc([H])c(N([H])C2([H])C([H])([H])N(C(=O)c3c(C([H])([H])[H])noc3C([H])([H])[H])C2([H])[H])c([H])c1N1C(=O)c2c([H])c([H])c(Cl)c([H])c2C([H])([H])C1([H])[H]


 33 37  0  0  0  0  0  0  0  0999 V2000
    0.1054  -52.5078  -24.9236 C   0  0  0  0  0  0  0  0  0  0  0  0
   -0.5485  -53.6915  -25.2963 C   0  0  0  0  0  0  0  0  0  0  0  0
   -0.9402  -54.5670  -24.3584 N   0  0  0  0  0  0  0  0  0  0  0  0
   -0.7212  -54.3416  -23.0396 C   0  0  0  0  0  0  0  0  0  0  0  0
   -0.0838  -53.1988  -22.5975 C   0  0  0  0  0  0  0  0  0  0  0  0
    0.3203  -52.2935  -23.5812 C   0  0  0  0  0  0  0  0  0  0  0  0
    0.1385  -52.9484  -21.2196 N   0  0  0  0  0  0  0  0  0  0  0  0
    1.3613  -52.2707  -20.8488 C   0  0  0  0  0  0  0  0  0  0  0  0
    1.1996  -51.3606  -19.6788 C   0  0  0  0  0  0  0  0  0  0  0  0
    0.1496  -51.7860  -18.7326 C   0  0  0  0  0  0  0  0  0  0  0  0
    0.1653  -51.1649  -17.4854 C   0  0  0  0  0  0  0  0  0  0  0  0
   -0.7810  -51.4989  -16.5109 C   0  0  0  0  0  0  0  0  0  0  0  0
   -0.7753  -50.7236  -14.9372 Cl  0  0  0  0  0  0  0  0  0  0  0  0
   -1.7583  -52.4530  -16.7533 C   0  0  0  0  0  0  0  0  0  0  0  0
   -1.7423  -53.0504  -18.0079 C   0  0  0  0  0  0  0  0  0  0  0  0
   -0.8087  -52.7171  -18.9633 C   0  0  0  0  0  0  0  0  0  0  0  0
   -0.8490  -53.3620  -20.2769 C   0  0  0  0  0  0  0  0  0  0  0  0
   -1.7167  -54.2270  -20.5296 O   0  0  0  0  0  0  0  0  0  0  0  0
    0.4951  -51.6070  -25.9385 N   0  0  0  0  0  0  0  0  0  0  0  0
   -0.1184  -50.7785  -26.1302 H   0  0  0  0  0  0  0  0  0  0  0  0
    3.9750  -51.3532  -24.1173 C   0  0  0  0  0  0  0  0  0  0  0  0
    4.0755  -52.5553  -23.5414 O   0  0  0  0  0  0  0  0  0  0  0  0
    3.2839  -51.4481  -25.3313 N   0  0  0  0  0  0  0  0  0  0  0  0
    2.7280  -52.6898  -25.9760 C   0  0  0  0  0  0  0  0  0  0  0  0
    1.7191  -51.8456  -26.6806 C   0  0  0  0  0  0  0  0  0  0  0  0
    2.7679  -50.7546  -26.4459 C   0  0  0  0  0  0  0  0  0  0  0  0
    2.3288  -49.1763  -22.6555 C   0  0  0  0  0  0  0  0  0  0  0  0
    3.8128  -49.2924  -22.7342 C   0  0  0  0  0  0  0  0  0  0  0  0
    4.6703  -48.4416  -22.1529 N   0  0  0  0  0  0  0  0  0  0  0  0
    5.8566  -48.8094  -22.3997 O   0  0  0  0  0  0  0  0  0  0  0  0
    5.8519  -49.9213  -23.1556 C   0  0  0  0  0  0  0  0  0  0  0  0
    7.0917  -50.5684  -23.5897 C   0  0  0  0  0  0  0  0  0  0  0  0
    4.5691  -50.2774  -23.4021 C   0  0  0  0  0  0  0  0  0  0  0  0
 27 28  1  0  0  0
 28 29  2  0  0  0
 29 30  1  0  0  0
 30 31  1  0  0  0
 31 32  1  0  0  0
 31 33  2  0  0  0
 33 21  1  0  0  0
 21 22  2  0  0  0
 21 23  1  0  0  0
 23 24  1  0  0  0
 24 25  1  0  0  0
 25 19  1  0  0  0
 19  1  1  0  0  0
  1  2  2  0  0  0
  2  3  1  0  0  0
  3  4  2  0  0  0
  4  5  1  0  0  0
  5  7  1  0  0  0
  7  8  1  0  0  0
  8  9  1  0  0  0
  9 10  1  0  0  0
 10 11  2  0  0  0
 11 12  1  0  0  0
 12 13  1  0  0  0
 12 14  2  0  0  0
 14 15  1  0  0  0
 15 16  2  0  0  0
 16 17  1  0  0  0
 17 18  2  0  0  0
  5  6  2  0  0  0
 25 26  1  0  0  0
 33 28  1  0  0  0
 26 23  1  0  0  0
  6  1  1  0  0  0
 17  7  1  0  0  0
 16 10  1  0  0  0
 19 20  1  0  0  0
M  END
> <minimizedAffinity>
-8.63729

> <CNNscore>
0.3692964613

> <CNNaffinity>
7.0744757652

> <CNN_VS>
2.6125788689

> <CNNaffinity_variance>
0.1763469279

$$$$
[H]c1nc([H])c(N([H])C2([H])C([H])([H])N(C(=O)c3c(C([H])([H])[H])noc3C([H])([H])[H])C2([H])[H])c([H])c1N1C(=O)c2c([H])c([H])c(Cl)c([H])c2C([H])([H])C1([H])[H]


 33 37  0  0  0  0  0  0  0  0999 V2000
    4.6174  -50.8884  -21.5842 C   0  0  0  0  0  0  0  0  0  0  0  0
    5.2664  -49.6566  -21.7552 C   0  0  0  0  0  0  0  0  0  0  0  0
    5.1748  -48.7113  -20.8077 N   0  0  0  0  0  0  0  0  0  0  0  0
    4.4634  -48.9106  -19.6709 C   0  0  0  0  0  0  0  0  0  0  0  0
    3.7983  -50.0975  -19.4330 C   0  0  0  0  0  0  0  0  0  0  0  0
    3.8994  -51.0754  -20.4250 C   0  0  0  0  0  0  0  0  0  0  0  0
    3.0623  -50.3199  -18.2415 N   0  0  0  0  0  0  0  0  0  0  0  0
    3.7332  -50.9978  -17.1542 C   0  0  0  0  0  0  0  0  0  0  0  0
    3.3141  -50.5120  -15.8083 C   0  0  0  0  0  0  0  0  0  0  0  0
    1.9280  -50.0068  -15.7613 C   0  0  0  0  0  0  0  0  0  0  0  0
    1.3842  -49.8369  -14.4897 C   0  0  0  0  0  0  0  0  0  0  0  0
    0.0752  -49.3699  -14.3309 C   0  0  0  0  0  0  0  0  0  0  0  0
   -0.6221  -49.1487  -12.7364 Cl  0  0  0  0  0  0  0  0  0  0  0  0
   -0.7180  -49.0637  -15.4269 C   0  0  0  0  0  0  0  0  0  0  0  0
   -0.1416  -49.2456  -16.6782 C   0  0  0  0  0  0  0  0  0  0  0  0
    1.1476  -49.7048  -16.8282 C   0  0  0  0  0  0  0  0  0  0  0  0
    1.7142  -49.8591  -18.1692 C   0  0  0  0  0  0  0  0  0  0  0  0
    1.0269  -49.5922  -19.1799 O   0  0  0  0  0  0  0  0  0  0  0  0
    4.7439  -51.8613  -22.5994 N   0  0  0  0  0  0  0  0  0  0  0  0
    5.3745  -52.6810  -22.4264 H   0  0  0  0  0  0  0  0  0  0  0  0
    0.8172  -52.1308  -22.5965 C   0  0  0  0  0  0  0  0  0  0  0  0
    0.4547  -50.9025  -22.2135 O   0  0  0  0  0  0  0  0  0  0  0  0
    1.9949  -52.0804  -23.3521 N   0  0  0  0  0  0  0  0  0  0  0  0
    2.7827  -50.8585  -23.7430 C   0  0  0  0  0  0  0  0  0  0  0  0
    4.0072  -51.7062  -23.8400 C   0  0  0  0  0  0  0  0  0  0  0  0
    2.9743  -52.8171  -24.0502 C   0  0  0  0  0  0  0  0  0  0  0  0
   -0.6093  -54.0513  -24.5617 C   0  0  0  0  0  0  0  0  0  0  0  0
   -0.6803  -54.0586  -23.0728 C   0  0  0  0  0  0  0  0  0  0  0  0
   -1.3923  -54.9375  -22.3534 N   0  0  0  0  0  0  0  0  0  0  0  0
   -1.2467  -54.6851  -21.1211 O   0  0  0  0  0  0  0  0  0  0  0  0
   -0.4321  -53.6284  -20.9551 C   0  0  0  0  0  0  0  0  0  0  0  0
   -0.0868  -53.1173  -19.6271 C   0  0  0  0  0  0  0  0  0  0  0  0
   -0.0380  -53.1844  -22.1719 C   0  0  0  0  0  0  0  0  0  0  0  0
 27 28  1  0  0  0
 28 29  2  0  0  0
 29 30  1  0  0  0
 30 31  1  0  0  0
 31 32  1  0  0  0
 31 33  2  0  0  0
 33 21  1  0  0  0
 21 22  2  0  0  0
 21 23  1  0  0  0
 23 24  1  0  0  0
 24 25  1  0  0  0
 25 19  1  0  0  0
 19  1  1  0  0  0
  1  2  2  0  0  0
  2  3  1  0  0  0
  3  4  2  0  0  0
  4  5  1  0  0  0
  5  7  1  0  0  0
  7  8  1  0  0  0
  8  9  1  0  0  0
  9 10  1  0  0  0
 10 11  2  0  0  0
 11 12  1  0  0  0
 12 13  1  0  0  0
 12 14  2  0  0  0
 14 15  1  0  0  0
 15 16  2  0  0  0
 16 17  1  0  0  0
 17 18  2  0  0  0
  5  6  2  0  0  0
 25 26  1  0  0  0
 33 28  1  0  0  0
 26 23  1  0  0  0
  6  1  1  0  0  0
 17  7  1  0  0  0
 16 10  1  0  0  0
 19 20  1  0  0  0
M  END
> <minimizedAffinity>
-7.74093

> <CNNscore>
0.3328141868

> <CNNaffinity>
6.6077942848

> <CNN_VS>
2.1991677284

> <CNNaffinity_variance>
0.0526309833

$$$$
[H]c1c([H])c([H])c2c(nc(SC([H])([H])C(=O)N3C(=O)C([H])([H])C([H])([H])C3([H])[H])n2C([H])([H])[H])c1[H]


 20 22  0  0  0  0  0  0  0  0999 V2000
    1.0608  -51.1383  -22.3650 C   0  0  0  0  0  0  0  0  0  0  0  0
    0.3138  -52.0081  -21.4523 N   0  0  0  0  0  0  0  0  0  0  0  0
   -0.3072  -53.1578  -21.6755 C   0  0  0  0  0  0  0  0  0  0  0  0
   -0.8080  -53.5900  -20.4813 N   0  0  0  0  0  0  0  0  0  0  0  0
   -0.5058  -52.7148  -19.5050 C   0  0  0  0  0  0  0  0  0  0  0  0
   -0.7800  -52.6942  -18.1496 C   0  0  0  0  0  0  0  0  0  0  0  0
   -0.3341  -51.6457  -17.3863 C   0  0  0  0  0  0  0  0  0  0  0  0
    0.3850  -50.6275  -18.0019 C   0  0  0  0  0  0  0  0  0  0  0  0
    0.6548  -50.6509  -19.3435 C   0  0  0  0  0  0  0  0  0  0  0  0
    0.2055  -51.7126  -20.1260 C   0  0  0  0  0  0  0  0  0  0  0  0
   -0.5482  -54.0204  -23.1746 S   0  0  0  0  0  0  0  0  0  0  0  0
   -0.5467  -53.0979  -24.6761 C   0  0  0  0  0  0  0  0  0  0  0  0
    0.3061  -53.5018  -25.7744 C   0  0  0  0  0  0  0  0  0  0  0  0
    1.3777  -54.0964  -25.6663 O   0  0  0  0  0  0  0  0  0  0  0  0
   -0.1522  -53.1717  -27.1051 N   0  0  0  0  0  0  0  0  0  0  0  0
   -1.3745  -52.4870  -27.4194 C   0  0  0  0  0  0  0  0  0  0  0  0
   -1.6053  -52.7665  -28.9090 C   0  0  0  0  0  0  0  0  0  0  0  0
   -0.1984  -52.8150  -29.4411 C   0  0  0  0  0  0  0  0  0  0  0  0
    0.5294  -53.4717  -28.3282 C   0  0  0  0  0  0  0  0  0  0  0  0
    1.5667  -54.1798  -28.3878 O   0  0  0  0  0  0  0  0  0  0  0  0
  1  2  1  0  0  0
  2  3  1  0  0  0
  3 11  1  0  0  0
 11 12  1  0  0  0
 12 13  1  0  0  0
 13 14  2  0  0  0
 13 15  1  0  0  0
 15 16  1  0  0  0
 16 17  1  0  0  0
 17 18  1  0  0  0
 18 19  1  0  0  0
 19 20  2  0  0  0
  3  4  2  0  0  0
  4  5  1  0  0  0
  5  6  2  0  0  0
  6  7  1  0  0  0
  7  8  2  0  0  0
  8  9  1  0  0  0
  9 10  2  0  0  0
 10  2  1  0  0  0
 19 15  1  0  0  0
 10  5  1  0  0  0
M  END
> <minimizedAffinity>
-7.52536

> <CNNscore>
0.7619137764

> <CNNaffinity>
5.7802953720

> <CNN_VS>
4.4040865898

> <CNNaffinity_variance>
0.0113576259

$$$$
[H]c1c([H])c([H])c2c(nc(SC([H])([H])C(=O)N3C(=O)C([H])([H])C([H])([H])C3([H])[H])n2C([H])([H])[H])c1[H]


 20 22  0  0  0  0  0  0  0  0999 V2000
    2.6211  -52.8612  -27.6400 C   0  0  0  0  0  0  0  0  0  0  0  0
    1.4044  -52.5886  -26.8701 N   0  0  0  0  0  0  0  0  0  0  0  0
    1.2471  -52.2856  -25.5892 C   0  0  0  0  0  0  0  0  0  0  0  0
   -0.0859  -52.0784  -25.3792 N   0  0  0  0  0  0  0  0  0  0  0  0
   -0.7705  -52.2515  -26.5244 C   0  0  0  0  0  0  0  0  0  0  0  0
   -2.1157  -52.1602  -26.8329 C   0  0  0  0  0  0  0  0  0  0  0  0
   -2.5314  -52.3980  -28.1181 C   0  0  0  0  0  0  0  0  0  0  0  0
   -1.5819  -52.7263  -29.0791 C   0  0  0  0  0  0  0  0  0  0  0  0
   -0.2515  -52.8158  -28.7705 C   0  0  0  0  0  0  0  0  0  0  0  0
    0.1791  -52.5756  -27.4674 C   0  0  0  0  0  0  0  0  0  0  0  0
    2.4354  -52.1928  -24.3128 S   0  0  0  0  0  0  0  0  0  0  0  0
    1.9373  -51.5309  -22.7574 C   0  0  0  0  0  0  0  0  0  0  0  0
    1.0291  -52.2751  -21.9101 C   0  0  0  0  0  0  0  0  0  0  0  0
    0.3646  -53.2506  -22.2572 O   0  0  0  0  0  0  0  0  0  0  0  0
    0.9015  -51.8226  -20.5431 N   0  0  0  0  0  0  0  0  0  0  0  0
    1.6001  -50.7090  -19.9655 C   0  0  0  0  0  0  0  0  0  0  0  0
    1.4684  -50.9097  -18.4514 C   0  0  0  0  0  0  0  0  0  0  0  0
    0.1063  -51.5395  -18.3354 C   0  0  0  0  0  0  0  0  0  0  0  0
    0.0640  -52.4056  -19.5385 C   0  0  0  0  0  0  0  0  0  0  0  0
   -0.5757  -53.4752  -19.7049 O   0  0  0  0  0  0  0  0  0  0  0  0
  1  2  1  0  0  0
  2  3  1  0  0  0
  3 11  1  0  0  0
 11 12  1  0  0  0
 12 13  1  0  0  0
 13 14  2  0  0  0
 13 15  1  0  0  0
 15 16  1  0  0  0
 16 17  1  0  0  0
 17 18  1  0  0  0
 18 19  1  0  0  0
 19 20  2  0  0  0
  3  4  2  0  0  0
  4  5  1  0  0  0
  5  6  2  0  0  0
  6  7  1  0  0  0
  7  8  2  0  0  0
  8  9  1  0  0  0
  9 10  2  0  0  0
 10  2  1  0  0  0
 19 15  1  0  0  0
 10  5  1  0  0  0
M  END
> <minimizedAffinity>
-6.79355

> <CNNscore>
0.5223842859

> <CNNaffinity>
5.3961200714

> <CNN_VS>
2.8188483715

> <CNNaffinity_variance>
0.0656079799

$$$$
[H]c1c([H])c([H])c2c(nc(SC([H])([H])C(=O)N3C(=O)C([H])([H])C([H])([H])C3([H])[H])n2C([H])([H])[H])c1[H]


 20 22  0  0  0  0  0  0  0  0999 V2000
    2.2100  -53.1225  -25.4537 C   0  0  0  0  0  0  0  0  0  0  0  0
    0.7732  -52.9728  -25.6999 N   0  0  0  0  0  0  0  0  0  0  0  0
   -0.2357  -52.8400  -24.8503 C   0  0  0  0  0  0  0  0  0  0  0  0
   -1.3736  -52.6851  -25.5885 N   0  0  0  0  0  0  0  0  0  0  0  0
   -1.0855  -52.7213  -26.9022 C   0  0  0  0  0  0  0  0  0  0  0  0
   -1.8712  -52.6148  -28.0354 C   0  0  0  0  0  0  0  0  0  0  0  0
   -1.2854  -52.6925  -29.2731 C   0  0  0  0  0  0  0  0  0  0  0  0
    0.0901  -52.8775  -29.3525 C   0  0  0  0  0  0  0  0  0  0  0  0
    0.8649  -52.9826  -28.2292 C   0  0  0  0  0  0  0  0  0  0  0  0
    0.2776  -52.9045  -26.9680 C   0  0  0  0  0  0  0  0  0  0  0  0
   -0.2355  -52.8914  -23.1048 S   0  0  0  0  0  0  0  0  0  0  0  0
    1.1853  -52.2892  -22.2538 C   0  0  0  0  0  0  0  0  0  0  0  0
    1.2665  -50.8938  -21.8755 C   0  0  0  0  0  0  0  0  0  0  0  0
    1.4372  -49.9521  -22.6486 O   0  0  0  0  0  0  0  0  0  0  0  0
    1.1349  -50.5962  -20.4670 N   0  0  0  0  0  0  0  0  0  0  0  0
    0.9277  -51.5641  -19.4268 C   0  0  0  0  0  0  0  0  0  0  0  0
    0.4290  -50.7475  -18.2290 C   0  0  0  0  0  0  0  0  0  0  0  0
    1.1758  -49.4519  -18.3993 C   0  0  0  0  0  0  0  0  0  0  0  0
    1.1860  -49.2939  -19.8739 C   0  0  0  0  0  0  0  0  0  0  0  0
    1.2301  -48.2295  -20.5418 O   0  0  0  0  0  0  0  0  0  0  0  0
  1  2  1  0  0  0
  2  3  1  0  0  0
  3 11  1  0  0  0
 11 12  1  0  0  0
 12 13  1  0  0  0
 13 14  2  0  0  0
 13 15  1  0  0  0
 15 16  1  0  0  0
 16 17  1  0  0  0
 17 18  1  0  0  0
 18 19  1  0  0  0
 19 20  2  0  0  0
  3  4  2  0  0  0
  4  5  1  0  0  0
  5  6  2  0  0  0
  6  7  1  0  0  0
  7  8  2  0  0  0
  8  9  1  0  0  0
  9 10  2  0  0  0
 10  2  1  0  0  0
 19 15  1  0  0  0
 10  5  1  0  0  0
M  END
> <minimizedAffinity>
-6.82221

> <CNNscore>
0.4017548859

> <CNNaffinity>
5.3872613907

> <CNN_VS>
2.1643586159

> <CNNaffinity_variance>
0.2188858688

$$$$
[H]c1c([H])c([H])c2c(nc(SC([H])([H])C(=O)N3C(=O)C([H])([H])C([H])([H])C3([H])[H])n2C([H])([H])[H])c1[H]


 20 22  0  0  0  0  0  0  0  0999 V2000
    2.8175  -52.7766  -27.6510 C   0  0  0  0  0  0  0  0  0  0  0  0
    1.5821  -52.5453  -26.8975 N   0  0  0  0  0  0  0  0  0  0  0  0
    1.3972  -52.2539  -25.6176 C   0  0  0  0  0  0  0  0  0  0  0  0
    0.0557  -52.0886  -25.4260 N   0  0  0  0  0  0  0  0  0  0  0  0
   -0.6068  -52.2766  -26.5819 C   0  0  0  0  0  0  0  0  0  0  0  0
   -1.9496  -52.2248  -26.9095 C   0  0  0  0  0  0  0  0  0  0  0  0
   -2.3393  -52.4685  -28.2016 C   0  0  0  0  0  0  0  0  0  0  0  0
   -1.3665  -52.7627  -29.1503 C   0  0  0  0  0  0  0  0  0  0  0  0
   -0.0386  -52.8131  -28.8229 C   0  0  0  0  0  0  0  0  0  0  0  0
    0.3657  -52.5666  -27.5125 C   0  0  0  0  0  0  0  0  0  0  0  0
    2.5636  -52.1316  -24.3237 S   0  0  0  0  0  0  0  0  0  0  0  0
    3.9268  -51.0344  -24.5321 C   0  0  0  0  0  0  0  0  0  0  0  0
    3.7501  -49.7853  -25.2427 C   0  0  0  0  0  0  0  0  0  0  0  0
    3.7857  -49.6464  -26.4646 O   0  0  0  0  0  0  0  0  0  0  0  0
    3.5130  -48.6094  -24.4359 N   0  0  0  0  0  0  0  0  0  0  0  0
    3.4354  -48.5844  -23.0023 C   0  0  0  0  0  0  0  0  0  0  0  0
    2.7556  -47.2505  -22.6725 C   0  0  0  0  0  0  0  0  0  0  0  0
    3.2729  -46.3554  -23.7662 C   0  0  0  0  0  0  0  0  0  0  0  0
    3.3142  -47.2787  -24.9261 C   0  0  0  0  0  0  0  0  0  0  0  0
    3.1999  -46.9998  -26.1468 O   0  0  0  0  0  0  0  0  0  0  0  0
  1  2  1  0  0  0
  2  3  1  0  0  0
  3 11  1  0  0  0
 11 12  1  0  0  0
 12 13  1  0  0  0
 13 14  2  0  0  0
 13 15  1  0  0  0
 15 16  1  0  0  0
 16 17  1  0  0  0
 17 18  1  0  0  0
 18 19  1  0  0  0
 19 20  2  0  0  0
  3  4  2  0  0  0
  4  5  1  0  0  0
  5  6  2  0  0  0
  6  7  1  0  0  0
  7  8  2  0  0  0
  8  9  1  0  0  0
  9 10  2  0  0  0
 10  2  1  0  0  0
 19 15  1  0  0  0
 10  5  1  0  0  0
M  END
> <minimizedAffinity>
-6.04055

> <CNNscore>
0.3689497411

> <CNNaffinity>
5.0104041100

> <CNN_VS>
1.8485872746

> <CNNaffinity_variance>
0.2233715951

$$$$
[H]c1c([H])c([H])c2c(nc(SC([H])([H])C(=O)N3C(=O)C([H])([H])C([H])([H])C3([H])[H])n2C([H])([H])[H])c1[H]


 20 22  0  0  0  0  0  0  0  0999 V2000
    2.4601  -49.8086  -23.0758 C   0  0  0  0  0  0  0  0  0  0  0  0
    1.4165  -50.8372  -23.0617 N   0  0  0  0  0  0  0  0  0  0  0  0
    0.7368  -51.3589  -22.0501 C   0  0  0  0  0  0  0  0  0  0  0  0
   -0.1573  -52.2477  -22.5740 N   0  0  0  0  0  0  0  0  0  0  0  0
   -0.0424  -52.2894  -23.9139 C   0  0  0  0  0  0  0  0  0  0  0  0
   -0.7048  -53.0150  -24.8874 C   0  0  0  0  0  0  0  0  0  0  0  0
   -0.3638  -52.8458  -26.2049 C   0  0  0  0  0  0  0  0  0  0  0  0
    0.6445  -51.9439  -26.5252 C   0  0  0  0  0  0  0  0  0  0  0  0
    1.2981  -51.2273  -25.5595 C   0  0  0  0  0  0  0  0  0  0  0  0
    0.9576  -51.3933  -24.2186 C   0  0  0  0  0  0  0  0  0  0  0  0
    0.9035  -51.0789  -20.3345 S   0  0  0  0  0  0  0  0  0  0  0  0
    0.6724  -52.4419  -19.2417 C   0  0  0  0  0  0  0  0  0  0  0  0
   -0.6335  -52.7018  -18.6728 C   0  0  0  0  0  0  0  0  0  0  0  0
   -1.5374  -53.3349  -19.2167 O   0  0  0  0  0  0  0  0  0  0  0  0
   -0.8834  -52.1657  -17.3537 N   0  0  0  0  0  0  0  0  0  0  0  0
    0.0526  -51.4087  -16.5709 C   0  0  0  0  0  0  0  0  0  0  0  0
   -0.5042  -51.4579  -15.1435 C   0  0  0  0  0  0  0  0  0  0  0  0
   -1.9896  -51.4655  -15.3858 C   0  0  0  0  0  0  0  0  0  0  0  0
   -2.0981  -52.2996  -16.6073 C   0  0  0  0  0  0  0  0  0  0  0  0
   -3.0615  -53.0191  -16.9748 O   0  0  0  0  0  0  0  0  0  0  0  0
  1  2  1  0  0  0
  2  3  1  0  0  0
  3 11  1  0  0  0
 11 12  1  0  0  0
 12 13  1  0  0  0
 13 14  2  0  0  0
 13 15  1  0  0  0
 15 16  1  0  0  0
 16 17  1  0  0  0
 17 18  1  0  0  0
 18 19  1  0  0  0
 19 20  2  0  0  0
  3  4  2  0  0  0
  4  5  1  0  0  0
  5  6  2  0  0  0
  6  7  1  0  0  0
  7  8  2  0  0  0
  8  9  1  0  0  0
  9 10  2  0  0  0
 10  2  1  0  0  0
 19 15  1  0  0  0
 10  5  1  0  0  0
M  END
> <minimizedAffinity>
-5.83857

> <CNNscore>
0.3290836513

> <CNNaffinity>
5.0105309486

> <CNN_VS>
1.6488838196

> <CNNaffinity_variance>
0.1134803295

$$$$
[H]c1c([H])c([H])c2c(nc(SC([H])([H])C(=O)N3C(=O)C([H])([H])C([H])([H])C3([H])[H])n2C([H])([H])[H])c1[H]


 20 22  0  0  0  0  0  0  0  0999 V2000
   -0.8684  -54.4174  -23.3372 C   0  0  0  0  0  0  0  0  0  0  0  0
   -0.0022  -53.4855  -22.6102 N   0  0  0  0  0  0  0  0  0  0  0  0
    1.0326  -52.7696  -23.0274 C   0  0  0  0  0  0  0  0  0  0  0  0
    1.4652  -52.0224  -21.9700 N   0  0  0  0  0  0  0  0  0  0  0  0
    0.7068  -52.2662  -20.8857 C   0  0  0  0  0  0  0  0  0  0  0  0
    0.7369  -51.7743  -19.5934 C   0  0  0  0  0  0  0  0  0  0  0  0
   -0.1846  -52.2188  -18.6801 C   0  0  0  0  0  0  0  0  0  0  0  0
   -1.1279  -53.1572  -19.0829 C   0  0  0  0  0  0  0  0  0  0  0  0
   -1.1550  -53.6421  -20.3626 C   0  0  0  0  0  0  0  0  0  0  0  0
   -0.2224  -53.1955  -21.2966 C   0  0  0  0  0  0  0  0  0  0  0  0
    1.8125  -52.7455  -24.5897 S   0  0  0  0  0  0  0  0  0  0  0  0
    1.1145  -51.7353  -25.8537 C   0  0  0  0  0  0  0  0  0  0  0  0
   -0.2860  -51.8673  -26.1967 C   0  0  0  0  0  0  0  0  0  0  0  0
   -1.2318  -51.5858  -25.4618 O   0  0  0  0  0  0  0  0  0  0  0  0
   -0.5842  -52.3745  -27.5171 N   0  0  0  0  0  0  0  0  0  0  0  0
    0.3882  -52.7486  -28.5051 C   0  0  0  0  0  0  0  0  0  0  0  0
   -0.3930  -52.7920  -29.8234 C   0  0  0  0  0  0  0  0  0  0  0  0
   -1.7470  -53.2683  -29.3706 C   0  0  0  0  0  0  0  0  0  0  0  0
   -1.8915  -52.5862  -28.0617 C   0  0  0  0  0  0  0  0  0  0  0  0
   -2.9494  -52.2312  -27.4822 O   0  0  0  0  0  0  0  0  0  0  0  0
  1  2  1  0  0  0
  2  3  1  0  0  0
  3 11  1  0  0  0
 11 12  1  0  0  0
 12 13  1  0  0  0
 13 14  2  0  0  0
 13 15  1  0  0  0
 15 16  1  0  0  0
 16 17  1  0  0  0
 17 18  1  0  0  0
 18 19  1  0  0  0
 19 20  2  0  0  0
  3  4  2  0  0  0
  4  5  1  0  0  0
  5  6  2  0  0  0
  6  7  1  0  0  0
  7  8  2  0  0  0
  8  9  1  0  0  0
  9 10  2  0  0  0
 10  2  1  0  0  0
 19 15  1  0  0  0
 10  5  1  0  0  0
M  END
> <minimizedAffinity>
-6.93181

> <CNNscore>
0.2912317216

> <CNNaffinity>
5.2876930237

> <CNN_VS>
1.5399439335

> <CNNaffinity_variance>
0.4348222613

$$$$
[H]c1c([H])c([H])c2c(nc(SC([H])([H])C(=O)N3C(=O)C([H])([H])C([H])([H])C3([H])[H])n2C([H])([H])[H])c1[H]


 20 22  0  0  0  0  0  0  0  0999 V2000
    2.1273  -53.0955  -25.2399 C   0  0  0  0  0  0  0  0  0  0  0  0
    0.7080  -52.9486  -25.5736 N   0  0  0  0  0  0  0  0  0  0  0  0
   -0.3500  -52.8064  -24.7875 C   0  0  0  0  0  0  0  0  0  0  0  0
   -1.4415  -52.6598  -25.5943 N   0  0  0  0  0  0  0  0  0  0  0  0
   -1.0751  -52.7108  -26.8879 C   0  0  0  0  0  0  0  0  0  0  0  0
   -1.7914  -52.6170  -28.0673 C   0  0  0  0  0  0  0  0  0  0  0  0
   -1.1325  -52.7085  -29.2667 C   0  0  0  0  0  0  0  0  0  0  0  0
    0.2453  -52.8943  -29.2613 C   0  0  0  0  0  0  0  0  0  0  0  0
    0.9512  -52.9868  -28.0924 C   0  0  0  0  0  0  0  0  0  0  0  0
    0.2894  -52.8946  -26.8697 C   0  0  0  0  0  0  0  0  0  0  0  0
   -0.4546  -52.8383  -23.0446 S   0  0  0  0  0  0  0  0  0  0  0  0
    1.0290  -52.6281  -22.1172 C   0  0  0  0  0  0  0  0  0  0  0  0
    0.9666  -52.1843  -20.7403 C   0  0  0  0  0  0  0  0  0  0  0  0
    0.0582  -52.4339  -19.9490 O   0  0  0  0  0  0  0  0  0  0  0  0
    2.0714  -51.3802  -20.2686 N   0  0  0  0  0  0  0  0  0  0  0  0
    3.2145  -50.9957  -21.0479 C   0  0  0  0  0  0  0  0  0  0  0  0
    4.2584  -50.5535  -20.0159 C   0  0  0  0  0  0  0  0  0  0  0  0
    3.3989  -49.9441  -18.9411 C   0  0  0  0  0  0  0  0  0  0  0  0
    2.2140  -50.8360  -18.9517 C   0  0  0  0  0  0  0  0  0  0  0  0
    1.4349  -51.1057  -18.0024 O   0  0  0  0  0  0  0  0  0  0  0  0
  1  2  1  0  0  0
  2  3  1  0  0  0
  3 11  1  0  0  0
 11 12  1  0  0  0
 12 13  1  0  0  0
 13 14  2  0  0  0
 13 15  1  0  0  0
 15 16  1  0  0  0
 16 17  1  0  0  0
 17 18  1  0  0  0
 18 19  1  0  0  0
 19 20  2  0  0  0
  3  4  2  0  0  0
  4  5  1  0  0  0
  5  6  2  0  0  0
  6  7  1  0  0  0
  7  8  2  0  0  0
  8  9  1  0  0  0
  9 10  2  0  0  0
 10  2  1  0  0  0
 19 15  1  0  0  0
 10  5  1  0  0  0
M  END
> <minimizedAffinity>
-6.36631

> <CNNscore>
0.2905616760

> <CNNaffinity>
5.1172552109

> <CNN_VS>
1.4868782759

> <CNNaffinity_variance>
0.2416386306

$$$$
[H]c1c([H])c([H])c2c(nc(SC([H])([H])C(=O)N3C(=O)C([H])([H])C([H])([H])C3([H])[H])n2C([H])([H])[H])c1[H]


 20 22  0  0  0  0  0  0  0  0999 V2000
    1.0417  -50.6999  -21.7286 C   0  0  0  0  0  0  0  0  0  0  0  0
    0.3524  -51.9537  -21.4117 N   0  0  0  0  0  0  0  0  0  0  0  0
   -0.0524  -52.4421  -20.2477 C   0  0  0  0  0  0  0  0  0  0  0  0
   -0.6876  -53.6240  -20.4993 N   0  0  0  0  0  0  0  0  0  0  0  0
   -0.6833  -53.8835  -21.8195 C   0  0  0  0  0  0  0  0  0  0  0  0
   -1.1855  -54.9324  -22.5682 C   0  0  0  0  0  0  0  0  0  0  0  0
   -1.0262  -54.9268  -23.9304 C   0  0  0  0  0  0  0  0  0  0  0  0
   -0.3600  -53.8598  -24.5223 C   0  0  0  0  0  0  0  0  0  0  0  0
    0.1357  -52.8233  -23.7786 C   0  0  0  0  0  0  0  0  0  0  0  0
   -0.0220  -52.8213  -22.3942 C   0  0  0  0  0  0  0  0  0  0  0  0
    0.1742  -51.8100  -18.6356 S   0  0  0  0  0  0  0  0  0  0  0  0
   -0.8978  -52.3807  -17.3588 C   0  0  0  0  0  0  0  0  0  0  0  0
   -0.9623  -51.6742  -16.0965 C   0  0  0  0  0  0  0  0  0  0  0  0
   -0.0014  -51.1976  -15.4939 O   0  0  0  0  0  0  0  0  0  0  0  0
   -2.2728  -51.5237  -15.5050 N   0  0  0  0  0  0  0  0  0  0  0  0
   -3.5014  -52.0102  -16.0670 C   0  0  0  0  0  0  0  0  0  0  0  0
   -4.6004  -51.2427  -15.3231 C   0  0  0  0  0  0  0  0  0  0  0  0
   -3.9996  -51.0836  -13.9524 C   0  0  0  0  0  0  0  0  0  0  0  0
   -2.5668  -50.8661  -14.2674 C   0  0  0  0  0  0  0  0  0  0  0  0
   -1.7128  -50.2255  -13.6031 O   0  0  0  0  0  0  0  0  0  0  0  0
  1  2  1  0  0  0
  2  3  1  0  0  0
  3 11  1  0  0  0
 11 12  1  0  0  0
 12 13  1  0  0  0
 13 14  2  0  0  0
 13 15  1  0  0  0
 15 16  1  0  0  0
 16 17  1  0  0  0
 17 18  1  0  0  0
 18 19  1  0  0  0
 19 20  2  0  0  0
  3  4  2  0  0  0
  4  5  1  0  0  0
  5  6  2  0  0  0
  6  7  1  0  0  0
  7  8  2  0  0  0
  8  9  1  0  0  0
  9 10  2  0  0  0
 10  2  1  0  0  0
 19 15  1  0  0  0
 10  5  1  0  0  0
M  END
> <minimizedAffinity>
-6.11762

> <CNNscore>
0.2891428173

> <CNNaffinity>
4.8187108040

> <CNN_VS>
1.3932956457

> <CNNaffinity_variance>
0.2090713084

$$$$
[H]c1c([H])c([H])c2c(nc(SC([H])([H])C(=O)N3C(=O)C([H])([H])C([H])([H])C3([H])[H])n2C([H])([H])[H])c1[H]


 20 22  0  0  0  0  0  0  0  0999 V2000
   -1.0901  -55.1012  -23.7885 C   0  0  0  0  0  0  0  0  0  0  0  0
   -0.4458  -53.8236  -23.4718 N   0  0  0  0  0  0  0  0  0  0  0  0
    0.1278  -52.9298  -24.2650 C   0  0  0  0  0  0  0  0  0  0  0  0
    0.5319  -51.8877  -23.4812 N   0  0  0  0  0  0  0  0  0  0  0  0
    0.2160  -52.1224  -22.1946 C   0  0  0  0  0  0  0  0  0  0  0  0
    0.4076  -51.3916  -21.0361 C   0  0  0  0  0  0  0  0  0  0  0  0
   -0.0296  -51.8973  -19.8386 C   0  0  0  0  0  0  0  0  0  0  0  0
   -0.6566  -53.1380  -19.8245 C   0  0  0  0  0  0  0  0  0  0  0  0
   -0.8448  -53.8587  -20.9727 C   0  0  0  0  0  0  0  0  0  0  0  0
   -0.4036  -53.3520  -22.1935 C   0  0  0  0  0  0  0  0  0  0  0  0
    0.4153  -52.9908  -25.9865 S   0  0  0  0  0  0  0  0  0  0  0  0
    2.0806  -52.9050  -26.5564 C   0  0  0  0  0  0  0  0  0  0  0  0
    2.8478  -51.6906  -26.3738 C   0  0  0  0  0  0  0  0  0  0  0  0
    2.8331  -50.7158  -27.1243 O   0  0  0  0  0  0  0  0  0  0  0  0
    3.6994  -51.6321  -25.2072 N   0  0  0  0  0  0  0  0  0  0  0  0
    3.8387  -52.6698  -24.2245 C   0  0  0  0  0  0  0  0  0  0  0  0
    4.4781  -51.9775  -23.0153 C   0  0  0  0  0  0  0  0  0  0  0  0
    5.3629  -50.9523  -23.6719 C   0  0  0  0  0  0  0  0  0  0  0  0
    4.5414  -50.5356  -24.8342 C   0  0  0  0  0  0  0  0  0  0  0  0
    4.5406  -49.4278  -25.4290 O   0  0  0  0  0  0  0  0  0  0  0  0
  1  2  1  0  0  0
  2  3  1  0  0  0
  3 11  1  0  0  0
 11 12  1  0  0  0
 12 13  1  0  0  0
 13 14  2  0  0  0
 13 15  1  0  0  0
 15 16  1  0  0  0
 16 17  1  0  0  0
 17 18  1  0  0  0
 18 19  1  0  0  0
 19 20  2  0  0  0
  3  4  2  0  0  0
  4  5  1  0  0  0
  5  6  2  0  0  0
  6  7  1  0  0  0
  7  8  2  0  0  0
  8  9  1  0  0  0
  9 10  2  0  0  0
 10  2  1  0  0  0
 19 15  1  0  0  0
 10  5  1  0  0  0
M  END
> <minimizedAffinity>
-6.13606

> <CNNscore>
0.2853026986

> <CNNaffinity>
5.2461771965

> <CNN_VS>
1.4967485666

> <CNNaffinity_variance>
0.2288914025

$$$$
[H]c1c(C([H])([H])[H])c([H])c2c(c1C(F)(F)F)C(=O)N1C([H])([H])C([H])([H])N([H])C([H])([H])[C@@]21[H]


 20 22  0  0  0  0  0  0  0  0999 V2000
   -0.7766  -52.5627  -25.2164 C   0  0  0  0  0  0  0  0  0  0  0  0
   -0.0408  -52.4421  -23.9296 C   0  0  0  0  0  0  0  0  0  0  0  0
    1.1132  -51.6903  -23.9317 C   0  0  0  0  0  0  0  0  0  0  0  0
    1.8350  -51.5420  -22.7779 C   0  0  0  0  0  0  0  0  0  0  0  0
    1.3850  -52.1626  -21.6067 C   0  0  0  0  0  0  0  0  0  0  0  0
    0.2407  -52.9153  -21.5755 C   0  0  0  0  0  0  0  0  0  0  0  0
   -0.4709  -53.0477  -22.7608 C   0  0  0  0  0  0  0  0  0  0  0  0
    2.3903  -51.8301  -20.5966 C   0  0  0  0  0  0  0  0  0  0  0  0
    2.3435  -52.2014  -19.4105 O   0  0  0  0  0  0  0  0  0  0  0  0
    3.4060  -51.0403  -21.1493 N   0  0  0  0  0  0  0  0  0  0  0  0
    4.6447  -50.4849  -20.6653 C   0  0  0  0  0  0  0  0  0  0  0  0
    5.7815  -50.7860  -21.6399 C   0  0  0  0  0  0  0  0  0  0  0  0
    5.3809  -50.3776  -22.9479 N   0  0  0  0  0  0  0  0  0  0  0  0
    4.2035  -51.0653  -23.4519 C   0  0  0  0  0  0  0  0  0  0  0  0
    3.0626  -50.7797  -22.5283 C   0  0  0  0  0  0  0  0  0  0  0  0
    6.1330  -50.4473  -23.6587 H   0  0  0  0  0  0  0  0  0  0  0  0
   -0.2182  -53.5530  -20.3225 C   0  0  0  0  0  0  0  0  0  0  0  0
   -0.4755  -52.6921  -19.3014 F   0  0  0  0  0  0  0  0  0  0  0  0
    0.6808  -54.5585  -19.9387 F   0  0  0  0  0  0  0  0  0  0  0  0
   -1.4158  -54.2425  -20.5656 F   0  0  0  0  0  0  0  0  0  0  0  0
  1  2  1  0  0  0
  2  3  2  0  0  0
  3  4  1  0  0  0
  4  5  2  0  0  0
  5  6  1  0  0  0
  6 17  1  0  0  0
 17 18  1  0  0  0
 17 19  1  0  0  0
 17 20  1  0  0  0
  6  7  2  0  0  0
  5  8  1  0  0  0
  8  9  2  0  0  0
  8 10  1  0  0  0
 10 11  1  0  0  0
 11 12  1  0  0  0
 12 13  1  0  0  0
 13 14  1  0  0  0
 14 15  1  0  0  0
  7  2  1  0  0  0
 15 10  1  0  0  0
 15  4  1  0  0  0
 13 16  1  0  0  0
M  END
> <minimizedAffinity>
-7.09870

> <CNNscore>
0.4565795064

> <CNNaffinity>
4.7977738380

> <CNN_VS>
2.1905651093

> <CNNaffinity_variance>
0.2392060012

$$$$
[H]c1c(C([H])([H])[H])c([H])c2c(c1C(F)(F)F)C(=O)N1C([H])([H])C([H])([H])N([H])C([H])([H])[C@@]21[H]


 20 22  0  0  0  0  0  0  0  0999 V2000
    1.5170  -49.2102  -21.3775 C   0  0  0  0  0  0  0  0  0  0  0  0
    0.9765  -50.5018  -21.8789 C   0  0  0  0  0  0  0  0  0  0  0  0
    1.2299  -50.8227  -23.1942 C   0  0  0  0  0  0  0  0  0  0  0  0
    0.7585  -51.9981  -23.7143 C   0  0  0  0  0  0  0  0  0  0  0  0
    0.0207  -52.8601  -22.8946 C   0  0  0  0  0  0  0  0  0  0  0  0
   -0.2455  -52.5667  -21.5832 C   0  0  0  0  0  0  0  0  0  0  0  0
    0.2456  -51.3677  -21.0830 C   0  0  0  0  0  0  0  0  0  0  0  0
   -0.3460  -53.9797  -23.7625 C   0  0  0  0  0  0  0  0  0  0  0  0
   -1.0119  -54.9639  -23.3954 O   0  0  0  0  0  0  0  0  0  0  0  0
    0.1547  -53.7887  -25.0563 N   0  0  0  0  0  0  0  0  0  0  0  0
    0.0587  -54.5041  -26.3038 C   0  0  0  0  0  0  0  0  0  0  0  0
   -0.3232  -53.5531  -27.4363 C   0  0  0  0  0  0  0  0  0  0  0  0
    0.5718  -52.4410  -27.4193 N   0  0  0  0  0  0  0  0  0  0  0  0
    0.5348  -51.6655  -26.1904 C   0  0  0  0  0  0  0  0  0  0  0  0
    0.9197  -52.5631  -25.0579 C   0  0  0  0  0  0  0  0  0  0  0  0
    0.4534  -51.7940  -28.2212 H   0  0  0  0  0  0  0  0  0  0  0  0
   -1.0197  -53.4992  -20.7356 C   0  0  0  0  0  0  0  0  0  0  0  0
   -0.4857  -54.7444  -20.6166 F   0  0  0  0  0  0  0  0  0  0  0  0
   -2.3530  -53.5460  -21.1678 F   0  0  0  0  0  0  0  0  0  0  0  0
   -1.1024  -52.9816  -19.4340 F   0  0  0  0  0  0  0  0  0  0  0  0
  1  2  1  0  0  0
  2  3  2  0  0  0
  3  4  1  0  0  0
  4  5  2  0  0  0
  5  6  1  0  0  0
  6 17  1  0  0  0
 17 18  1  0  0  0
 17 19  1  0  0  0
 17 20  1  0  0  0
  6  7  2  0  0  0
  5  8  1  0  0  0
  8  9  2  0  0  0
  8 10  1  0  0  0
 10 11  1  0  0  0
 11 12  1  0  0  0
 12 13  1  0  0  0
 13 14  1  0  0  0
 14 15  1  0  0  0
  7  2  1  0  0  0
 15 10  1  0  0  0
 15  4  1  0  0  0
 13 16  1  0  0  0
M  END
> <minimizedAffinity>
-7.81399

> <CNNscore>
0.4074178338

> <CNNaffinity>
5.3287177086

> <CNN_VS>
2.1710145473

> <CNNaffinity_variance>
0.0686663836

$$$$
[H]c1c(C([H])([H])[H])c([H])c2c(c1C(F)(F)F)C(=O)N1C([H])([H])C([H])([H])N([H])C([H])([H])[C@@]21[H]


 20 22  0  0  0  0  0  0  0  0999 V2000
   -0.9911  -52.4201  -17.3755 C   0  0  0  0  0  0  0  0  0  0  0  0
   -0.3857  -52.4683  -18.7330 C   0  0  0  0  0  0  0  0  0  0  0  0
    0.7639  -51.7375  -18.9365 C   0  0  0  0  0  0  0  0  0  0  0  0
    1.3683  -51.7415  -20.1650 C   0  0  0  0  0  0  0  0  0  0  0  0
    0.8029  -52.4933  -21.2015 C   0  0  0  0  0  0  0  0  0  0  0  0
   -0.3390  -53.2298  -21.0271 C   0  0  0  0  0  0  0  0  0  0  0  0
   -0.9298  -53.2069  -19.7703 C   0  0  0  0  0  0  0  0  0  0  0  0
    1.6677  -52.2487  -22.3564 C   0  0  0  0  0  0  0  0  0  0  0  0
    1.4942  -52.7486  -23.4819 O   0  0  0  0  0  0  0  0  0  0  0  0
    2.7112  -51.3780  -22.0188 N   0  0  0  0  0  0  0  0  0  0  0  0
    3.7925  -50.7534  -22.7383 C   0  0  0  0  0  0  0  0  0  0  0  0
    3.8411  -49.2572  -22.4354 C   0  0  0  0  0  0  0  0  0  0  0  0
    3.8457  -49.0785  -21.0190 N   0  0  0  0  0  0  0  0  0  0  0  0
    2.6676  -49.6039  -20.3487 C   0  0  0  0  0  0  0  0  0  0  0  0
    2.5957  -51.0744  -20.6110 C   0  0  0  0  0  0  0  0  0  0  0  0
    3.9843  -48.0952  -20.7199 H   0  0  0  0  0  0  0  0  0  0  0  0
   -0.9111  -54.0233  -22.1364 C   0  0  0  0  0  0  0  0  0  0  0  0
   -0.1876  -55.1192  -22.4904 F   0  0  0  0  0  0  0  0  0  0  0  0
   -1.1675  -53.1934  -23.2374 F   0  0  0  0  0  0  0  0  0  0  0  0
   -2.1791  -54.4939  -21.7629 F   0  0  0  0  0  0  0  0  0  0  0  0
  1  2  1  0  0  0
  2  3  2  0  0  0
  3  4  1  0  0  0
  4  5  2  0  0  0
  5  6  1  0  0  0
  6 17  1  0  0  0
 17 18  1  0  0  0
 17 19  1  0  0  0
 17 20  1  0  0  0
  6  7  2  0  0  0
  5  8  1  0  0  0
  8  9  2  0  0  0
  8 10  1  0  0  0
 10 11  1  0  0  0
 11 12  1  0  0  0
 12 13  1  0  0  0
 13 14  1  0  0  0
 14 15  1  0  0  0
  7  2  1  0  0  0
 15 10  1  0  0  0
 15  4  1  0  0  0
 13 16  1  0  0  0
M  END
> <minimizedAffinity>
-6.23753

> <CNNscore>
0.3825693727

> <CNNaffinity>
4.5939893723

> <CNN_VS>
1.7575196028

> <CNNaffinity_variance>
0.1792672426

$$$$
[H]c1c(C([H])([H])[H])c([H])c2c(c1C(F)(F)F)C(=O)N1C([H])([H])C([H])([H])N([H])C([H])([H])[C@@]21[H]


 20 22  0  0  0  0  0  0  0  0999 V2000
   -0.2726  -53.2354  -19.2097 C   0  0  0  0  0  0  0  0  0  0  0  0
   -0.8295  -52.4826  -18.0543 C   0  0  0  0  0  0  0  0  0  0  0  0
   -0.0921  -51.4203  -17.5801 C   0  0  0  0  0  0  0  0  0  0  0  0
   -0.5520  -50.6884  -16.5184 C   0  0  0  0  0  0  0  0  0  0  0  0
   -1.7727  -51.0352  -15.9277 C   0  0  0  0  0  0  0  0  0  0  0  0
   -2.5270  -52.0860  -16.3791 C   0  0  0  0  0  0  0  0  0  0  0  0
   -2.0355  -52.8100  -17.4576 C   0  0  0  0  0  0  0  0  0  0  0  0
   -1.9386  -50.0865  -14.8260 C   0  0  0  0  0  0  0  0  0  0  0  0
   -2.9144  -50.0694  -14.0550 O   0  0  0  0  0  0  0  0  0  0  0  0
   -0.8513  -49.2064  -14.7616 N   0  0  0  0  0  0  0  0  0  0  0  0
   -0.4515  -48.1409  -13.8774 C   0  0  0  0  0  0  0  0  0  0  0  0
    1.0050  -48.3175  -13.4532 C   0  0  0  0  0  0  0  0  0  0  0  0
    1.8030  -48.4922  -14.6240 N   0  0  0  0  0  0  0  0  0  0  0  0
    1.4522  -49.6604  -15.4148 C   0  0  0  0  0  0  0  0  0  0  0  0
    0.0327  -49.5146  -15.8621 C   0  0  0  0  0  0  0  0  0  0  0  0
    2.8231  -48.5142  -14.4379 H   0  0  0  0  0  0  0  0  0  0  0  0
   -3.8182  -52.4260  -15.7432 C   0  0  0  0  0  0  0  0  0  0  0  0
   -4.7969  -51.4943  -15.8980 F   0  0  0  0  0  0  0  0  0  0  0  0
   -3.6179  -52.7481  -14.3931 F   0  0  0  0  0  0  0  0  0  0  0  0
   -4.3131  -53.6123  -16.3058 F   0  0  0  0  0  0  0  0  0  0  0  0
  1  2  1  0  0  0
  2  3  2  0  0  0
  3  4  1  0  0  0
  4  5  2  0  0  0
  5  6  1  0  0  0
  6 17  1  0  0  0
 17 18  1  0  0  0
 17 19  1  0  0  0
 17 20  1  0  0  0
  6  7  2  0  0  0
  5  8  1  0  0  0
  8  9  2  0  0  0
  8 10  1  0  0  0
 10 11  1  0  0  0
 11 12  1  0  0  0
 12 13  1  0  0  0
 13 14  1  0  0  0
 14 15  1  0  0  0
  7  2  1  0  0  0
 15 10  1  0  0  0
 15  4  1  0  0  0
 13 16  1  0  0  0
M  END
> <minimizedAffinity>
-5.21430

> <CNNscore>
0.3376951516

> <CNNaffinity>
4.0754976273

> <CNN_VS>
1.3762757778

> <CNNaffinity_variance>
0.1237800866

$$$$
[H]c1c(C([H])([H])[H])c([H])c2c(c1C(F)(F)F)C(=O)N1C([H])([H])C([H])([H])N([H])C([H])([H])[C@@]21[H]


 20 22  0  0  0  0  0  0  0  0999 V2000
   -1.3385  -55.1209  -23.0789 C   0  0  0  0  0  0  0  0  0  0  0  0
   -0.5133  -53.9383  -22.7154 C   0  0  0  0  0  0  0  0  0  0  0  0
    0.1555  -53.2991  -23.7359 C   0  0  0  0  0  0  0  0  0  0  0  0
    0.9316  -52.2043  -23.4645 C   0  0  0  0  0  0  0  0  0  0  0  0
    1.0339  -51.7503  -22.1444 C   0  0  0  0  0  0  0  0  0  0  0  0
    0.3794  -52.3661  -21.1104 C   0  0  0  0  0  0  0  0  0  0  0  0
   -0.4008  -53.4738  -21.4157 C   0  0  0  0  0  0  0  0  0  0  0  0
    1.9480  -50.6096  -22.2105 C   0  0  0  0  0  0  0  0  0  0  0  0
    2.2930  -49.9283  -21.2287 O   0  0  0  0  0  0  0  0  0  0  0  0
    2.3775  -50.3940  -23.5258 N   0  0  0  0  0  0  0  0  0  0  0  0
    3.2983  -49.4867  -24.1631 C   0  0  0  0  0  0  0  0  0  0  0  0
    4.2474  -50.2497  -25.0849 C   0  0  0  0  0  0  0  0  0  0  0  0
    3.4727  -51.0715  -25.9581 N   0  0  0  0  0  0  0  0  0  0  0  0
    2.6614  -52.0661  -25.2757 C   0  0  0  0  0  0  0  0  0  0  0  0
    1.7062  -51.3527  -24.3729 C   0  0  0  0  0  0  0  0  0  0  0  0
    4.0301  -51.5476  -26.6918 H   0  0  0  0  0  0  0  0  0  0  0  0
    0.4967  -51.8606  -19.7254 C   0  0  0  0  0  0  0  0  0  0  0  0
    0.0914  -50.5746  -19.5478 F   0  0  0  0  0  0  0  0  0  0  0  0
    1.8000  -52.0640  -19.2493 F   0  0  0  0  0  0  0  0  0  0  0  0
   -0.3009  -52.6441  -18.8776 F   0  0  0  0  0  0  0  0  0  0  0  0
  1  2  1  0  0  0
  2  3  2  0  0  0
  3  4  1  0  0  0
  4  5  2  0  0  0
  5  6  1  0  0  0
  6 17  1  0  0  0
 17 18  1  0  0  0
 17 19  1  0  0  0
 17 20  1  0  0  0
  6  7  2  0  0  0
  5  8  1  0  0  0
  8  9  2  0  0  0
  8 10  1  0  0  0
 10 11  1  0  0  0
 11 12  1  0  0  0
 12 13  1  0  0  0
 13 14  1  0  0  0
 14 15  1  0  0  0
  7  2  1  0  0  0
 15 10  1  0  0  0
 15  4  1  0  0  0
 13 16  1  0  0  0
M  END
> <minimizedAffinity>
-6.69283

> <CNNscore>
0.3124240041

> <CNNaffinity>
4.8101081848

> <CNN_VS>
1.5027933121

> <CNNaffinity_variance>
0.1145761833

$$$$
[H]c1c(C([H])([H])[H])c([H])c2c(c1C(F)(F)F)C(=O)N1C([H])([H])C([H])([H])N([H])C([H])([H])[C@@]21[H]


 20 22  0  0  0  0  0  0  0  0999 V2000
   -0.8469  -52.6639  -17.6706 C   0  0  0  0  0  0  0  0  0  0  0  0
   -0.4363  -52.3414  -19.0631 C   0  0  0  0  0  0  0  0  0  0  0  0
   -0.9825  -53.1019  -20.0732 C   0  0  0  0  0  0  0  0  0  0  0  0
   -0.6433  -52.8535  -21.3761 C   0  0  0  0  0  0  0  0  0  0  0  0
    0.2604  -51.8234  -21.6618 C   0  0  0  0  0  0  0  0  0  0  0  0
    0.8182  -51.0510  -20.6774 C   0  0  0  0  0  0  0  0  0  0  0  0
    0.4554  -51.3258  -19.3652 C   0  0  0  0  0  0  0  0  0  0  0  0
    0.4186  -51.8567  -23.1161 C   0  0  0  0  0  0  0  0  0  0  0  0
    1.1493  -51.0837  -23.7609 O   0  0  0  0  0  0  0  0  0  0  0  0
   -0.3628  -52.8745  -23.6767 N   0  0  0  0  0  0  0  0  0  0  0  0
   -0.5540  -53.4005  -25.0048 C   0  0  0  0  0  0  0  0  0  0  0  0
   -0.4383  -54.9234  -24.9975 C   0  0  0  0  0  0  0  0  0  0  0  0
   -1.3045  -55.4417  -23.9880 N   0  0  0  0  0  0  0  0  0  0  0  0
   -0.9880  -54.9908  -22.6428 C   0  0  0  0  0  0  0  0  0  0  0  0
   -1.1065  -53.5005  -22.6078 C   0  0  0  0  0  0  0  0  0  0  0  0
   -1.3707  -56.4768  -23.9818 H   0  0  0  0  0  0  0  0  0  0  0  0
    1.7637  -49.9624  -21.0067 C   0  0  0  0  0  0  0  0  0  0  0  0
    1.2576  -48.9852  -21.8060 F   0  0  0  0  0  0  0  0  0  0  0  0
    2.9491  -50.4984  -21.5303 F   0  0  0  0  0  0  0  0  0  0  0  0
    2.1710  -49.3291  -19.8226 F   0  0  0  0  0  0  0  0  0  0  0  0
  1  2  1  0  0  0
  2  3  2  0  0  0
  3  4  1  0  0  0
  4  5  2  0  0  0
  5  6  1  0  0  0
  6 17  1  0  0  0
 17 18  1  0  0  0
 17 19  1  0  0  0
 17 20  1  0  0  0
  6  7  2  0  0  0
  5  8  1  0  0  0
  8  9  2  0  0  0
  8 10  1  0  0  0
 10 11  1  0  0  0
 11 12  1  0  0  0
 12 13  1  0  0  0
 13 14  1  0  0  0
 14 15  1  0  0  0
  7  2  1  0  0  0
 15 10  1  0  0  0
 15  4  1  0  0  0
 13 16  1  0  0  0
M  END
> <minimizedAffinity>
-6.75538

> <CNNscore>
0.3038476706

> <CNNaffinity>
5.0563888550

> <CNN_VS>
1.5363719463

> <CNNaffinity_variance>
0.0949084908

$$$$
[H]c1c(C([H])([H])[H])c([H])c2c(c1C(F)(F)F)C(=O)N1C([H])([H])C([H])([H])N([H])C([H])([H])[C@@]21[H]


 20 22  0  0  0  0  0  0  0  0999 V2000
    2.5530  -51.0578  -24.6736 C   0  0  0  0  0  0  0  0  0  0  0  0
    1.5565  -51.8344  -23.8890 C   0  0  0  0  0  0  0  0  0  0  0  0
    1.2664  -51.3862  -22.6194 C   0  0  0  0  0  0  0  0  0  0  0  0
    0.3573  -52.0588  -21.8477 C   0  0  0  0  0  0  0  0  0  0  0  0
   -0.2662  -53.1999  -22.3658 C   0  0  0  0  0  0  0  0  0  0  0  0
    0.0026  -53.6676  -23.6251 C   0  0  0  0  0  0  0  0  0  0  0  0
    0.9287  -52.9648  -24.3849 C   0  0  0  0  0  0  0  0  0  0  0  0
   -1.1324  -53.6759  -21.2868 C   0  0  0  0  0  0  0  0  0  0  0  0
   -1.8617  -54.6806  -21.3631 O   0  0  0  0  0  0  0  0  0  0  0  0
   -1.0257  -52.8471  -20.1631 N   0  0  0  0  0  0  0  0  0  0  0  0
   -1.5747  -52.8584  -18.8306 C   0  0  0  0  0  0  0  0  0  0  0  0
   -0.4707  -52.6460  -17.7967 C   0  0  0  0  0  0  0  0  0  0  0  0
    0.2741  -51.4827  -18.1573 N   0  0  0  0  0  0  0  0  0  0  0  0
    0.9255  -51.5709  -19.4539 C   0  0  0  0  0  0  0  0  0  0  0  0
   -0.1293  -51.7640  -20.4962 C   0  0  0  0  0  0  0  0  0  0  0  0
    0.9803  -51.2005  -17.4520 H   0  0  0  0  0  0  0  0  0  0  0  0
   -0.6769  -54.8707  -24.1525 C   0  0  0  0  0  0  0  0  0  0  0  0
   -0.6216  -55.9621  -23.3428 F   0  0  0  0  0  0  0  0  0  0  0  0
   -0.2100  -55.1585  -25.4431 F   0  0  0  0  0  0  0  0  0  0  0  0
   -2.0388  -54.5889  -24.3387 F   0  0  0  0  0  0  0  0  0  0  0  0
  1  2  1  0  0  0
  2  3  2  0  0  0
  3  4  1  0  0  0
  4  5  2  0  0  0
  5  6  1  0  0  0
  6 17  1  0  0  0
 17 18  1  0  0  0
 17 19  1  0  0  0
 17 20  1  0  0  0
  6  7  2  0  0  0
  5  8  1  0  0  0
  8  9  2  0  0  0
  8 10  1  0  0  0
 10 11  1  0  0  0
 11 12  1  0  0  0
 12 13  1  0  0  0
 13 14  1  0  0  0
 14 15  1  0  0  0
  7  2  1  0  0  0
 15 10  1  0  0  0
 15  4  1  0  0  0
 13 16  1  0  0  0
M  END
> <minimizedAffinity>
-5.80370

> <CNNscore>
0.2927241623

> <CNNaffinity>
4.7590312958

> <CNN_VS>
1.3930834532

> <CNNaffinity_variance>
0.1740656793

$$$$
[H]c1c(C([H])([H])[H])c([H])c2c(c1C(F)(F)F)C(=O)N1C([H])([H])C([H])([H])N([H])C([H])([H])[C@@]21[H]


 20 22  0  0  0  0  0  0  0  0999 V2000
   -1.0281  -54.7260  -22.5206 C   0  0  0  0  0  0  0  0  0  0  0  0
   -0.5883  -53.6307  -21.6159 C   0  0  0  0  0  0  0  0  0  0  0  0
   -0.9038  -53.7515  -20.2806 C   0  0  0  0  0  0  0  0  0  0  0  0
   -0.5264  -52.7755  -19.3977 C   0  0  0  0  0  0  0  0  0  0  0  0
    0.1784  -51.6624  -19.8708 C   0  0  0  0  0  0  0  0  0  0  0  0
    0.5061  -51.5168  -21.1930 C   0  0  0  0  0  0  0  0  0  0  0  0
    0.1105  -52.5227  -22.0651 C   0  0  0  0  0  0  0  0  0  0  0  0
    0.3870  -50.8222  -18.6911 C   0  0  0  0  0  0  0  0  0  0  0  0
    0.9848  -49.7315  -18.7026 O   0  0  0  0  0  0  0  0  0  0  0  0
   -0.1773  -51.4144  -17.5545 N   0  0  0  0  0  0  0  0  0  0  0  0
   -0.3313  -51.0311  -16.1738 C   0  0  0  0  0  0  0  0  0  0  0  0
   -1.7742  -51.2417  -15.7192 C   0  0  0  0  0  0  0  0  0  0  0  0
   -2.1654  -52.5751  -16.0464 N   0  0  0  0  0  0  0  0  0  0  0  0
   -2.1258  -52.8754  -17.4681 C   0  0  0  0  0  0  0  0  0  0  0  0
   -0.7205  -52.6945  -17.9465 C   0  0  0  0  0  0  0  0  0  0  0  0
   -3.0980  -52.8416  -15.6789 H   0  0  0  0  0  0  0  0  0  0  0  0
    1.2596  -50.3353  -21.6658 C   0  0  0  0  0  0  0  0  0  0  0  0
    2.5275  -50.2330  -21.1841 F   0  0  0  0  0  0  0  0  0  0  0  0
    0.5194  -49.1680  -21.4292 F   0  0  0  0  0  0  0  0  0  0  0  0
    1.3738  -50.3879  -23.0633 F   0  0  0  0  0  0  0  0  0  0  0  0
  1  2  1  0  0  0
  2  3  2  0  0  0
  3  4  1  0  0  0
  4  5  2  0  0  0
  5  6  1  0  0  0
  6 17  1  0  0  0
 17 18  1  0  0  0
 17 19  1  0  0  0
 17 20  1  0  0  0
  6  7  2  0  0  0
  5  8  1  0  0  0
  8  9  2  0  0  0
  8 10  1  0  0  0
 10 11  1  0  0  0
 11 12  1  0  0  0
 12 13  1  0  0  0
 13 14  1  0  0  0
 14 15  1  0  0  0
  7  2  1  0  0  0
 15 10  1  0  0  0
 15  4  1  0  0  0
 13 16  1  0  0  0
M  END
> <minimizedAffinity>
-7.06682

> <CNNscore>
0.2913789153

> <CNNaffinity>
4.5495491028

> <CNN_VS>
1.3256427050

> <CNNaffinity_variance>
0.1520870626

$$$$
[H]c1c(C([H])([H])[H])c([H])c2c(c1C(F)(F)F)C(=O)N1C([H])([H])C([H])([H])N([H])C([H])([H])[C@@]21[H]


 20 22  0  0  0  0  0  0  0  0999 V2000
   -1.1801  -52.1835  -21.7744 C   0  0  0  0  0  0  0  0  0  0  0  0
   -0.1231  -52.3592  -22.8057 C   0  0  0  0  0  0  0  0  0  0  0  0
    1.1844  -52.2075  -22.4000 C   0  0  0  0  0  0  0  0  0  0  0  0
    2.2024  -52.3568  -23.3032 C   0  0  0  0  0  0  0  0  0  0  0  0
    1.8948  -52.6625  -24.6341 C   0  0  0  0  0  0  0  0  0  0  0  0
    0.6039  -52.8197  -25.0649 C   0  0  0  0  0  0  0  0  0  0  0  0
   -0.4078  -52.6627  -24.1265 C   0  0  0  0  0  0  0  0  0  0  0  0
    3.1891  -52.7160  -25.3147 C   0  0  0  0  0  0  0  0  0  0  0  0
    3.3366  -52.9656  -26.5243 O   0  0  0  0  0  0  0  0  0  0  0  0
    4.2317  -52.4482  -24.4191 N   0  0  0  0  0  0  0  0  0  0  0  0
    5.6617  -52.3069  -24.5302 C   0  0  0  0  0  0  0  0  0  0  0  0
    6.1281  -51.0327  -23.8290 C   0  0  0  0  0  0  0  0  0  0  0  0
    5.5989  -51.0220  -22.5031 N   0  0  0  0  0  0  0  0  0  0  0  0
    4.1466  -51.0266  -22.4416 C   0  0  0  0  0  0  0  0  0  0  0  0
    3.6531  -52.2716  -23.1071 C   0  0  0  0  0  0  0  0  0  0  0  0
    5.9513  -50.2429  -21.9162 H   0  0  0  0  0  0  0  0  0  0  0  0
    0.3062  -53.1519  -26.4750 C   0  0  0  0  0  0  0  0  0  0  0  0
    0.7723  -54.3602  -26.8905 F   0  0  0  0  0  0  0  0  0  0  0  0
    0.7369  -52.1138  -27.3137 F   0  0  0  0  0  0  0  0  0  0  0  0
   -1.0844  -53.1832  -26.6596 F   0  0  0  0  0  0  0  0  0  0  0  0
  1  2  1  0  0  0
  2  3  2  0  0  0
  3  4  1  0  0  0
  4  5  2  0  0  0
  5  6  1  0  0  0
  6 17  1  0  0  0
 17 18  1  0  0  0
 17 19  1  0  0  0
 17 20  1  0  0  0
  6  7  2  0  0  0
  5  8  1  0  0  0
  8  9  2  0  0  0
  8 10  1  0  0  0
 10 11  1  0  0  0
 11 12  1  0  0  0
 12 13  1  0  0  0
 13 14  1  0  0  0
 14 15  1  0  0  0
  7  2  1  0  0  0
 15 10  1  0  0  0
 15  4  1  0  0  0
 13 16  1  0  0  0
M  END
> <minimizedAffinity>
-6.77839

> <CNNscore>
0.2778809667

> <CNNaffinity>
4.7977204323

> <CNN_VS>
1.3331952095

> <CNNaffinity_variance>
0.3598960042

$$$$
[H]N=C1c2c([H])nc([H])nc2C([H])([H])[C@](c2c([H])c(-c3c([H])nc([H])c(Cl)c3[H])c([H])c([H])c2F)(C([H])([H])[H])N1[H]


 28 31  0  0  0  0  0  0  0  0999 V2000
   -0.3605  -50.9097  -20.9637 C   0  0  0  0  0  0  0  0  0  0  0  0
    0.9100  -51.6495  -20.6738 C   0  0  0  0  0  0  0  0  0  0  0  0
    0.5709  -53.1152  -20.5534 C   0  0  0  0  0  0  0  0  0  0  0  0
   -0.0037  -53.6296  -21.8112 C   0  0  0  0  0  0  0  0  0  0  0  0
   -0.8919  -54.6433  -21.7738 N   0  0  0  0  0  0  0  0  0  0  0  0
   -1.4368  -55.1600  -22.8890 C   0  0  0  0  0  0  0  0  0  0  0  0
   -1.0618  -54.6252  -24.0633 N   0  0  0  0  0  0  0  0  0  0  0  0
   -0.1712  -53.6036  -24.1505 C   0  0  0  0  0  0  0  0  0  0  0  0
    0.3778  -53.0839  -23.0117 C   0  0  0  0  0  0  0  0  0  0  0  0
    1.3385  -51.9614  -23.0668 C   0  0  0  0  0  0  0  0  0  0  0  0
    1.7113  -51.4448  -24.1607 N   0  0  0  0  0  0  0  0  0  0  0  0
    1.8156  -51.5095  -21.8073 N   0  0  0  0  0  0  0  0  0  0  0  0
    1.4539  -51.6720  -25.1199 H   0  0  0  0  0  0  0  0  0  0  0  0
    2.7736  -51.1046  -21.7474 H   0  0  0  0  0  0  0  0  0  0  0  0
    1.5532  -51.1968  -19.4135 C   0  0  0  0  0  0  0  0  0  0  0  0
    0.8456  -50.6038  -18.3914 C   0  0  0  0  0  0  0  0  0  0  0  0
    1.4708  -50.1835  -17.2203 C   0  0  0  0  0  0  0  0  0  0  0  0
    2.8339  -50.3783  -17.1078 C   0  0  0  0  0  0  0  0  0  0  0  0
    3.5838  -50.9756  -18.1222 C   0  0  0  0  0  0  0  0  0  0  0  0
    2.9110  -51.3724  -19.2608 C   0  0  0  0  0  0  0  0  0  0  0  0
    3.6043  -51.9615  -20.2789 F   0  0  0  0  0  0  0  0  0  0  0  0
    0.7450  -49.5528  -16.1260 C   0  0  0  0  0  0  0  0  0  0  0  0
    1.3763  -49.3350  -14.9220 C   0  0  0  0  0  0  0  0  0  0  0  0
    0.7266  -48.7521  -13.8819 N   0  0  0  0  0  0  0  0  0  0  0  0
   -0.5603  -48.3566  -13.9663 C   0  0  0  0  0  0  0  0  0  0  0  0
   -1.2205  -48.5582  -15.1518 C   0  0  0  0  0  0  0  0  0  0  0  0
   -2.8857  -48.0533  -15.2785 Cl  0  0  0  0  0  0  0  0  0  0  0  0
   -0.5715  -49.1561  -16.2349 C   0  0  0  0  0  0  0  0  0  0  0  0
  2  1  1  0  0  0
  2 15  1  0  0  0
 15 16  2  0  0  0
 16 17  1  0  0  0
 17 22  1  0  0  0
 22 23  2  0  0  0
 23 24  1  0  0  0
 24 25  2  0  0  0
 25 26  1  0  0  0
 26 27  1  0  0  0
 26 28  2  0  0  0
 17 18  2  0  0  0
 18 19  1  0  0  0
 19 20  2  0  0  0
 20 21  1  0  0  0
  2  3  1  0  0  0
  3  4  1  0  0  0
  4  5  2  0  0  0
  5  6  1  0  0  0
  6  7  2  0  0  0
  7  8  1  0  0  0
  8  9  2  0  0  0
  9 10  1  0  0  0
 10 11  2  0  0  0
 10 12  1  0  0  0
 12  2  1  0  0  0
 20 15  1  0  0  0
  9  4  1  0  0  0
 28 22  1  0  0  0
 11 13  1  0  0  0
 12 14  1  0  0  0
M  END
> <minimizedAffinity>
-7.67532

> <CNNscore>
0.4432857037

> <CNNaffinity>
6.5775642395

> <CNN_VS>
2.9157402515

> <CNNaffinity_variance>
0.6046014428

$$$$
[H]N=C1c2c([H])nc([H])nc2C([H])([H])[C@](c2c([H])c(-c3c([H])nc([H])c(Cl)c3[H])c([H])c([H])c2F)(C([H])([H])[H])N1[H]


 28 31  0  0  0  0  0  0  0  0999 V2000
   -0.9304  -50.8783  -21.7192 C   0  0  0  0  0  0  0  0  0  0  0  0
    0.2536  -51.5295  -21.0713 C   0  0  0  0  0  0  0  0  0  0  0  0
   -0.1111  -52.9658  -20.7860 C   0  0  0  0  0  0  0  0  0  0  0  0
   -0.4292  -53.6879  -22.0328 C   0  0  0  0  0  0  0  0  0  0  0  0
   -1.3132  -54.7056  -22.0078 N   0  0  0  0  0  0  0  0  0  0  0  0
   -1.6303  -55.4065  -23.1104 C   0  0  0  0  0  0  0  0  0  0  0  0
   -1.0279  -55.0549  -24.2589 N   0  0  0  0  0  0  0  0  0  0  0  0
   -0.1316  -54.0372  -24.3328 C   0  0  0  0  0  0  0  0  0  0  0  0
    0.1850  -53.3296  -23.2071 C   0  0  0  0  0  0  0  0  0  0  0  0
    1.1442  -52.2053  -23.2525 C   0  0  0  0  0  0  0  0  0  0  0  0
    1.7285  -51.8591  -24.3207 N   0  0  0  0  0  0  0  0  0  0  0  0
    1.3659  -51.5473  -22.0131 N   0  0  0  0  0  0  0  0  0  0  0  0
    1.6642  -52.2421  -25.2626 H   0  0  0  0  0  0  0  0  0  0  0  0
    2.2956  -51.1132  -21.8327 H   0  0  0  0  0  0  0  0  0  0  0  0
    0.6381  -50.8661  -19.7988 C   0  0  0  0  0  0  0  0  0  0  0  0
    0.1630  -51.2799  -18.5740 C   0  0  0  0  0  0  0  0  0  0  0  0
    0.5342  -50.6398  -17.3943 C   0  0  0  0  0  0  0  0  0  0  0  0
    1.4007  -49.5676  -17.4840 C   0  0  0  0  0  0  0  0  0  0  0  0
    1.9027  -49.1202  -18.7070 C   0  0  0  0  0  0  0  0  0  0  0  0
    1.5003  -49.7927  -19.8438 C   0  0  0  0  0  0  0  0  0  0  0  0
    1.9667  -49.3899  -21.0623 F   0  0  0  0  0  0  0  0  0  0  0  0
    0.0444  -51.0573  -16.0874 C   0  0  0  0  0  0  0  0  0  0  0  0
    0.9396  -51.3901  -15.0957 C   0  0  0  0  0  0  0  0  0  0  0  0
    0.5151  -51.7857  -13.8681 N   0  0  0  0  0  0  0  0  0  0  0  0
   -0.7932  -51.8746  -13.5518 C   0  0  0  0  0  0  0  0  0  0  0  0
   -1.7133  -51.5504  -14.5163 C   0  0  0  0  0  0  0  0  0  0  0  0
   -3.4099  -51.6603  -14.1247 Cl  0  0  0  0  0  0  0  0  0  0  0  0
   -1.2989  -51.1409  -15.7861 C   0  0  0  0  0  0  0  0  0  0  0  0
  2  1  1  0  0  0
  2 15  1  0  0  0
 15 16  2  0  0  0
 16 17  1  0  0  0
 17 22  1  0  0  0
 22 23  2  0  0  0
 23 24  1  0  0  0
 24 25  2  0  0  0
 25 26  1  0  0  0
 26 27  1  0  0  0
 26 28  2  0  0  0
 17 18  2  0  0  0
 18 19  1  0  0  0
 19 20  2  0  0  0
 20 21  1  0  0  0
  2  3  1  0  0  0
  3  4  1  0  0  0
  4  5  2  0  0  0
  5  6  1  0  0  0
  6  7  2  0  0  0
  7  8  1  0  0  0
  8  9  2  0  0  0
  9 10  1  0  0  0
 10 11  2  0  0  0
 10 12  1  0  0  0
 12  2  1  0  0  0
 20 15  1  0  0  0
  9  4  1  0  0  0
 28 22  1  0  0  0
 11 13  1  0  0  0
 12 14  1  0  0  0
M  END
> <minimizedAffinity>
-6.91625

> <CNNscore>
0.4356950819

> <CNNaffinity>
6.4914369583

> <CNN_VS>
2.8282871246

> <CNNaffinity_variance>
0.4887154698

$$$$
[H]N=C1c2c([H])nc([H])nc2C([H])([H])[C@](c2c([H])c(-c3c([H])nc([H])c(Cl)c3[H])c([H])c([H])c2F)(C([H])([H])[H])N1[H]


 28 31  0  0  0  0  0  0  0  0999 V2000
   -0.0561  -50.6513  -21.4735 C   0  0  0  0  0  0  0  0  0  0  0  0
    0.8734  -51.8267  -21.4783 C   0  0  0  0  0  0  0  0  0  0  0  0
    1.9146  -51.5934  -20.4111 C   0  0  0  0  0  0  0  0  0  0  0  0
    1.2904  -51.4847  -19.0786 C   0  0  0  0  0  0  0  0  0  0  0  0
    1.8682  -50.7188  -18.1312 N   0  0  0  0  0  0  0  0  0  0  0  0
    1.3507  -50.5943  -16.8966 C   0  0  0  0  0  0  0  0  0  0  0  0
    0.2193  -51.2690  -16.6313 N   0  0  0  0  0  0  0  0  0  0  0  0
   -0.3985  -52.0519  -17.5532 C   0  0  0  0  0  0  0  0  0  0  0  0
    0.1342  -52.1729  -18.8061 C   0  0  0  0  0  0  0  0  0  0  0  0
   -0.5191  -53.0036  -19.8401 C   0  0  0  0  0  0  0  0  0  0  0  0
   -1.5817  -53.6529  -19.6126 N   0  0  0  0  0  0  0  0  0  0  0  0
    0.1332  -53.0247  -21.1020 N   0  0  0  0  0  0  0  0  0  0  0  0
   -2.1415  -53.7271  -18.7647 H   0  0  0  0  0  0  0  0  0  0  0  0
    0.0566  -53.8783  -21.6943 H   0  0  0  0  0  0  0  0  0  0  0  0
    1.5536  -52.0047  -22.7870 C   0  0  0  0  0  0  0  0  0  0  0  0
    0.8613  -52.1413  -23.9698 C   0  0  0  0  0  0  0  0  0  0  0  0
    1.5205  -52.3113  -25.1846 C   0  0  0  0  0  0  0  0  0  0  0  0
    2.9017  -52.3397  -25.1737 C   0  0  0  0  0  0  0  0  0  0  0  0
    3.6369  -52.2045  -23.9951 C   0  0  0  0  0  0  0  0  0  0  0  0
    2.9303  -52.0388  -22.8204 C   0  0  0  0  0  0  0  0  0  0  0  0
    3.6083  -51.9021  -21.6431 F   0  0  0  0  0  0  0  0  0  0  0  0
    0.8112  -52.4593  -26.4483 C   0  0  0  0  0  0  0  0  0  0  0  0
    1.5198  -52.6694  -27.6100 C   0  0  0  0  0  0  0  0  0  0  0  0
    0.8885  -52.8085  -28.8041 N   0  0  0  0  0  0  0  0  0  0  0  0
   -0.4541  -52.7498  -28.9209 C   0  0  0  0  0  0  0  0  0  0  0  0
   -1.1919  -52.5417  -27.7832 C   0  0  0  0  0  0  0  0  0  0  0  0
   -2.9297  -52.4624  -27.9159 Cl  0  0  0  0  0  0  0  0  0  0  0  0
   -0.5632  -52.3958  -26.5442 C   0  0  0  0  0  0  0  0  0  0  0  0
  2  1  1  0  0  0
  2 15  1  0  0  0
 15 16  2  0  0  0
 16 17  1  0  0  0
 17 22  1  0  0  0
 22 23  2  0  0  0
 23 24  1  0  0  0
 24 25  2  0  0  0
 25 26  1  0  0  0
 26 27  1  0  0  0
 26 28  2  0  0  0
 17 18  2  0  0  0
 18 19  1  0  0  0
 19 20  2  0  0  0
 20 21  1  0  0  0
  2  3  1  0  0  0
  3  4  1  0  0  0
  4  5  2  0  0  0
  5  6  1  0  0  0
  6  7  2  0  0  0
  7  8  1  0  0  0
  8  9  2  0  0  0
  9 10  1  0  0  0
 10 11  2  0  0  0
 10 12  1  0  0  0
 12  2  1  0  0  0
 20 15  1  0  0  0
  9  4  1  0  0  0
 28 22  1  0  0  0
 11 13  1  0  0  0
 12 14  1  0  0  0
M  END
> <minimizedAffinity>
-9.08109

> <CNNscore>
0.3742668927

> <CNNaffinity>
6.8521256447

> <CNN_VS>
2.5645236969

> <CNNaffinity_variance>
0.3536636233

$$$$
[H]N=C1c2c([H])nc([H])nc2C([H])([H])[C@](c2c([H])c(-c3c([H])nc([H])c(Cl)c3[H])c([H])c([H])c2F)(C([H])([H])[H])N1[H]


 28 31  0  0  0  0  0  0  0  0999 V2000
    0.6086  -51.3533  -24.9904 C   0  0  0  0  0  0  0  0  0  0  0  0
    0.4351  -52.8186  -24.7283 C   0  0  0  0  0  0  0  0  0  0  0  0
   -0.8074  -53.2713  -25.4553 C   0  0  0  0  0  0  0  0  0  0  0  0
   -0.6755  -53.0597  -26.9095 C   0  0  0  0  0  0  0  0  0  0  0  0
   -1.7743  -52.8111  -27.6503 N   0  0  0  0  0  0  0  0  0  0  0  0
   -1.7145  -52.6239  -28.9803 C   0  0  0  0  0  0  0  0  0  0  0  0
   -0.5037  -52.6934  -29.5589 N   0  0  0  0  0  0  0  0  0  0  0  0
    0.6305  -52.9408  -28.8540 C   0  0  0  0  0  0  0  0  0  0  0  0
    0.5608  -53.1298  -27.5021 C   0  0  0  0  0  0  0  0  0  0  0  0
    1.7762  -53.3855  -26.7000 C   0  0  0  0  0  0  0  0  0  0  0  0
    2.9266  -53.4612  -27.2227 N   0  0  0  0  0  0  0  0  0  0  0  0
    1.5594  -53.5451  -25.3051 N   0  0  0  0  0  0  0  0  0  0  0  0
    3.2174  -53.3712  -28.1950 H   0  0  0  0  0  0  0  0  0  0  0  0
    2.2005  -54.1621  -24.7631 H   0  0  0  0  0  0  0  0  0  0  0  0
    0.2861  -53.1206  -23.2813 C   0  0  0  0  0  0  0  0  0  0  0  0
    0.8881  -52.3642  -22.3002 C   0  0  0  0  0  0  0  0  0  0  0  0
    0.7375  -52.6690  -20.9498 C   0  0  0  0  0  0  0  0  0  0  0  0
   -0.0396  -53.7611  -20.6149 C   0  0  0  0  0  0  0  0  0  0  0  0
   -0.6650  -54.5504  -21.5812 C   0  0  0  0  0  0  0  0  0  0  0  0
   -0.4805  -54.2013  -22.9043 C   0  0  0  0  0  0  0  0  0  0  0  0
   -1.0739  -54.9450  -23.8836 F   0  0  0  0  0  0  0  0  0  0  0  0
    1.3648  -51.8857  -19.8939 C   0  0  0  0  0  0  0  0  0  0  0  0
    2.7324  -51.9191  -19.7377 C   0  0  0  0  0  0  0  0  0  0  0  0
    3.3471  -51.2028  -18.7617 N   0  0  0  0  0  0  0  0  0  0  0  0
    2.6620  -50.4253  -17.8980 C   0  0  0  0  0  0  0  0  0  0  0  0
    1.2972  -50.3683  -18.0246 C   0  0  0  0  0  0  0  0  0  0  0  0
    0.3952  -49.3682  -16.9156 Cl  0  0  0  0  0  0  0  0  0  0  0  0
    0.6441  -51.0971  -19.0217 C   0  0  0  0  0  0  0  0  0  0  0  0
  2  1  1  0  0  0
  2 15  1  0  0  0
 15 16  2  0  0  0
 16 17  1  0  0  0
 17 22  1  0  0  0
 22 23  2  0  0  0
 23 24  1  0  0  0
 24 25  2  0  0  0
 25 26  1  0  0  0
 26 27  1  0  0  0
 26 28  2  0  0  0
 17 18  2  0  0  0
 18 19  1  0  0  0
 19 20  2  0  0  0
 20 21  1  0  0  0
  2  3  1  0  0  0
  3  4  1  0  0  0
  4  5  2  0  0  0
  5  6  1  0  0  0
  6  7  2  0  0  0
  7  8  1  0  0  0
  8  9  2  0  0  0
  9 10  1  0  0  0
 10 11  2  0  0  0
 10 12  1  0  0  0
 12  2  1  0  0  0
 20 15  1  0  0  0
  9  4  1  0  0  0
 28 22  1  0  0  0
 11 13  1  0  0  0
 12 14  1  0  0  0
M  END
> <minimizedAffinity>
-10.02376

> <CNNscore>
0.3680309653

> <CNNaffinity>
6.7097764015

> <CNN_VS>
2.4694054127

> <CNNaffinity_variance>
0.1710004210

$$$$
[H]N=C1c2c([H])nc([H])nc2C([H])([H])[C@](c2c([H])c(-c3c([H])nc([H])c(Cl)c3[H])c([H])c([H])c2F)(C([H])([H])[H])N1[H]


 28 31  0  0  0  0  0  0  0  0999 V2000
    0.3997  -49.8299  -20.7835 C   0  0  0  0  0  0  0  0  0  0  0  0
    1.4400  -50.6726  -20.1101 C   0  0  0  0  0  0  0  0  0  0  0  0
    0.7401  -51.8555  -19.4869 C   0  0  0  0  0  0  0  0  0  0  0  0
    0.0599  -52.6681  -20.5136 C   0  0  0  0  0  0  0  0  0  0  0  0
   -1.0564  -53.3524  -20.1918 N   0  0  0  0  0  0  0  0  0  0  0  0
   -1.7090  -54.1187  -21.0831 C   0  0  0  0  0  0  0  0  0  0  0  0
   -1.2051  -54.1826  -22.3271 N   0  0  0  0  0  0  0  0  0  0  0  0
   -0.0843  -53.5109  -22.6976 C   0  0  0  0  0  0  0  0  0  0  0  0
    0.5730  -52.7339  -21.7852 C   0  0  0  0  0  0  0  0  0  0  0  0
    1.7870  -51.9761  -22.1566 C   0  0  0  0  0  0  0  0  0  0  0  0
    2.2838  -52.0246  -23.3199 N   0  0  0  0  0  0  0  0  0  0  0  0
    2.3570  -51.1961  -21.1149 N   0  0  0  0  0  0  0  0  0  0  0  0
    1.9818  -52.5388  -24.1459 H   0  0  0  0  0  0  0  0  0  0  0  0
    3.3860  -51.0336  -21.1128 H   0  0  0  0  0  0  0  0  0  0  0  0
    2.1709  -49.9300  -19.0510 C   0  0  0  0  0  0  0  0  0  0  0  0
    2.2775  -50.3947  -17.7588 C   0  0  0  0  0  0  0  0  0  0  0  0
    2.9644  -49.6791  -16.7815 C   0  0  0  0  0  0  0  0  0  0  0  0
    3.5429  -48.4781  -17.1443 C   0  0  0  0  0  0  0  0  0  0  0  0
    3.4559  -47.9758  -18.4436 C   0  0  0  0  0  0  0  0  0  0  0  0
    2.7624  -48.7278  -19.3710 C   0  0  0  0  0  0  0  0  0  0  0  0
    2.6521  -48.2754  -20.6545 F   0  0  0  0  0  0  0  0  0  0  0  0
    3.0899  -50.1483  -15.4081 C   0  0  0  0  0  0  0  0  0  0  0  0
    2.5859  -49.3881  -14.3767 C   0  0  0  0  0  0  0  0  0  0  0  0
    2.6894  -49.7962  -13.0858 N   0  0  0  0  0  0  0  0  0  0  0  0
    3.2849  -50.9569  -12.7422 C   0  0  0  0  0  0  0  0  0  0  0  0
    3.7984  -51.7398  -13.7448 C   0  0  0  0  0  0  0  0  0  0  0  0
    4.5726  -53.2439  -13.3185 Cl  0  0  0  0  0  0  0  0  0  0  0  0
    3.7031  -51.3393  -15.0798 C   0  0  0  0  0  0  0  0  0  0  0  0
  2  1  1  0  0  0
  2 15  1  0  0  0
 15 16  2  0  0  0
 16 17  1  0  0  0
 17 22  1  0  0  0
 22 23  2  0  0  0
 23 24  1  0  0  0
 24 25  2  0  0  0
 25 26  1  0  0  0
 26 27  1  0  0  0
 26 28  2  0  0  0
 17 18  2  0  0  0
 18 19  1  0  0  0
 19 20  2  0  0  0
 20 21  1  0  0  0
  2  3  1  0  0  0
  3  4  1  0  0  0
  4  5  2  0  0  0
  5  6  1  0  0  0
  6  7  2  0  0  0
  7  8  1  0  0  0
  8  9  2  0  0  0
  9 10  1  0  0  0
 10 11  2  0  0  0
 10 12  1  0  0  0
 12  2  1  0  0  0
 20 15  1  0  0  0
  9  4  1  0  0  0
 28 22  1  0  0  0
 11 13  1  0  0  0
 12 14  1  0  0  0
M  END
> <minimizedAffinity>
-6.68618

> <CNNscore>
0.3388646245

> <CNNaffinity>
6.2514801025

> <CNN_VS>
2.1184053421

> <CNNaffinity_variance>
0.6224186420

$$$$
[H]N=C1c2c([H])nc([H])nc2C([H])([H])[C@](c2c([H])c(-c3c([H])nc([H])c(Cl)c3[H])c([H])c([H])c2F)(C([H])([H])[H])N1[H]


 28 31  0  0  0  0  0  0  0  0999 V2000
    0.5919  -51.1517  -24.7709 C   0  0  0  0  0  0  0  0  0  0  0  0
    0.4085  -52.6048  -24.4536 C   0  0  0  0  0  0  0  0  0  0  0  0
   -0.7704  -53.1042  -25.2524 C   0  0  0  0  0  0  0  0  0  0  0  0
   -0.5269  -52.9596  -26.7005 C   0  0  0  0  0  0  0  0  0  0  0  0
   -1.5663  -52.7577  -27.5352 N   0  0  0  0  0  0  0  0  0  0  0  0
   -1.4042  -52.6325  -28.8640 C   0  0  0  0  0  0  0  0  0  0  0  0
   -0.1515  -52.7164  -29.3429 N   0  0  0  0  0  0  0  0  0  0  0  0
    0.9260  -52.9185  -28.5412 C   0  0  0  0  0  0  0  0  0  0  0  0
    0.7523  -53.0445  -27.1913 C   0  0  0  0  0  0  0  0  0  0  0  0
    1.9032  -53.2495  -26.2861 C   0  0  0  0  0  0  0  0  0  0  0  0
    3.0914  -53.3376  -26.7138 N   0  0  0  0  0  0  0  0  0  0  0  0
    1.5793  -53.3457  -24.9062 N   0  0  0  0  0  0  0  0  0  0  0  0
    3.4565  -53.2903  -27.6637 H   0  0  0  0  0  0  0  0  0  0  0  0
    2.1803  -53.9298  -24.2874 H   0  0  0  0  0  0  0  0  0  0  0  0
    0.1492  -52.8401  -23.0098 C   0  0  0  0  0  0  0  0  0  0  0  0
    0.4686  -51.9168  -22.0390 C   0  0  0  0  0  0  0  0  0  0  0  0
    0.2199  -52.1611  -20.6909 C   0  0  0  0  0  0  0  0  0  0  0  0
   -0.3620  -53.3662  -20.3475 C   0  0  0  0  0  0  0  0  0  0  0  0
   -0.6996  -54.3256  -21.3033 C   0  0  0  0  0  0  0  0  0  0  0  0
   -0.4298  -54.0292  -22.6246 C   0  0  0  0  0  0  0  0  0  0  0  0
   -0.7436  -54.9383  -23.5938 F   0  0  0  0  0  0  0  0  0  0  0  0
    0.5497  -51.2017  -19.6456 C   0  0  0  0  0  0  0  0  0  0  0  0
    0.0593  -51.3821  -18.3718 C   0  0  0  0  0  0  0  0  0  0  0  0
    0.3460  -50.5044  -17.3763 N   0  0  0  0  0  0  0  0  0  0  0  0
    1.1194  -49.4170  -17.5745 C   0  0  0  0  0  0  0  0  0  0  0  0
    1.6254  -49.2060  -18.8320 C   0  0  0  0  0  0  0  0  0  0  0  0
    2.6270  -47.8043  -19.1065 Cl  0  0  0  0  0  0  0  0  0  0  0  0
    1.3430  -50.0962  -19.8711 C   0  0  0  0  0  0  0  0  0  0  0  0
  2  1  1  0  0  0
  2 15  1  0  0  0
 15 16  2  0  0  0
 16 17  1  0  0  0
 17 22  1  0  0  0
 22 23  2  0  0  0
 23 24  1  0  0  0
 24 25  2  0  0  0
 25 26  1  0  0  0
 26 27  1  0  0  0
 26 28  2  0  0  0
 17 18  2  0  0  0
 18 19  1  0  0  0
 19 20  2  0  0  0
 20 21  1  0  0  0
  2  3  1  0  0  0
  3  4  1  0  0  0
  4  5  2  0  0  0
  5  6  1  0  0  0
  6  7  2  0  0  0
  7  8  1  0  0  0
  8  9  2  0  0  0
  9 10  1  0  0  0
 10 11  2  0  0  0
 10 12  1  0  0  0
 12  2  1  0  0  0
 20 15  1  0  0  0
  9  4  1  0  0  0
 28 22  1  0  0  0
 11 13  1  0  0  0
 12 14  1  0  0  0
M  END
> <minimizedAffinity>
-9.61521

> <CNNscore>
0.3267242014

> <CNNaffinity>
6.7516822815

> <CNN_VS>
2.2059381008

> <CNNaffinity_variance>
0.1098572463

$$$$
[H]N=C1c2c([H])nc([H])nc2C([H])([H])[C@](c2c([H])c(-c3c([H])nc([H])c(Cl)c3[H])c([H])c([H])c2F)(C([H])([H])[H])N1[H]


 28 31  0  0  0  0  0  0  0  0999 V2000
    0.4720  -49.2136  -16.9959 C   0  0  0  0  0  0  0  0  0  0  0  0
    0.8907  -50.5391  -17.5557 C   0  0  0  0  0  0  0  0  0  0  0  0
    2.3226  -50.7799  -17.1446 C   0  0  0  0  0  0  0  0  0  0  0  0
    2.4507  -50.8212  -15.6752 C   0  0  0  0  0  0  0  0  0  0  0  0
    3.6013  -50.4258  -15.0941 N   0  0  0  0  0  0  0  0  0  0  0  0
    3.7779  -50.4550  -13.7616 C   0  0  0  0  0  0  0  0  0  0  0  0
    2.7536  -50.8985  -13.0134 N   0  0  0  0  0  0  0  0  0  0  0  0
    1.5763  -51.3066  -13.5538 C   0  0  0  0  0  0  0  0  0  0  0  0
    1.4049  -51.2735  -14.9094 C   0  0  0  0  0  0  0  0  0  0  0  0
    0.1318  -51.6950  -15.5319 C   0  0  0  0  0  0  0  0  0  0  0  0
   -0.8449  -52.1217  -14.8491 N   0  0  0  0  0  0  0  0  0  0  0  0
    0.0862  -51.5919  -16.9481 N   0  0  0  0  0  0  0  0  0  0  0  0
   -0.9422  -52.2477  -13.8428 H   0  0  0  0  0  0  0  0  0  0  0  0
   -0.5088  -52.2593  -17.4827 H   0  0  0  0  0  0  0  0  0  0  0  0
    0.7994  -50.5815  -19.0380 C   0  0  0  0  0  0  0  0  0  0  0  0
    0.3029  -51.6706  -19.7194 C   0  0  0  0  0  0  0  0  0  0  0  0
    0.2308  -51.6893  -21.1099 C   0  0  0  0  0  0  0  0  0  0  0  0
    0.6745  -50.5757  -21.7967 C   0  0  0  0  0  0  0  0  0  0  0  0
    1.1836  -49.4540  -21.1405 C   0  0  0  0  0  0  0  0  0  0  0  0
    1.2314  -49.4914  -19.7611 C   0  0  0  0  0  0  0  0  0  0  0  0
    1.7215  -48.4161  -19.0771 F   0  0  0  0  0  0  0  0  0  0  0  0
   -0.2887  -52.8292  -21.8535 C   0  0  0  0  0  0  0  0  0  0  0  0
   -1.0894  -53.7524  -21.2191 C   0  0  0  0  0  0  0  0  0  0  0  0
   -1.5869  -54.8270  -21.8834 N   0  0  0  0  0  0  0  0  0  0  0  0
   -1.3291  -55.0505  -23.1885 C   0  0  0  0  0  0  0  0  0  0  0  0
   -0.5346  -54.1504  -23.8523 C   0  0  0  0  0  0  0  0  0  0  0  0
   -0.1903  -54.4241  -25.5405 Cl  0  0  0  0  0  0  0  0  0  0  0  0
   -0.0120  -53.0377  -23.1884 C   0  0  0  0  0  0  0  0  0  0  0  0
  2  1  1  0  0  0
  2 15  1  0  0  0
 15 16  2  0  0  0
 16 17  1  0  0  0
 17 22  1  0  0  0
 22 23  2  0  0  0
 23 24  1  0  0  0
 24 25  2  0  0  0
 25 26  1  0  0  0
 26 27  1  0  0  0
 26 28  2  0  0  0
 17 18  2  0  0  0
 18 19  1  0  0  0
 19 20  2  0  0  0
 20 21  1  0  0  0
  2  3  1  0  0  0
  3  4  1  0  0  0
  4  5  2  0  0  0
  5  6  1  0  0  0
  6  7  2  0  0  0
  7  8  1  0  0  0
  8  9  2  0  0  0
  9 10  1  0  0  0
 10 11  2  0  0  0
 10 12  1  0  0  0
 12  2  1  0  0  0
 20 15  1  0  0  0
  9  4  1  0  0  0
 28 22  1  0  0  0
 11 13  1  0  0  0
 12 14  1  0  0  0
M  END
> <minimizedAffinity>
-8.35236

> <CNNscore>
0.3234107494

> <CNNaffinity>
6.2536582947

> <CNN_VS>
2.0225002766

> <CNNaffinity_variance>
0.4687484801

$$$$
[H]N=C1c2c([H])nc([H])nc2C([H])([H])[C@](c2c([H])c(-c3c([H])nc([H])c(Cl)c3[H])c([H])c([H])c2F)(C([H])([H])[H])N1[H]


 28 31  0  0  0  0  0  0  0  0999 V2000
    0.8248  -51.0754  -24.3675 C   0  0  0  0  0  0  0  0  0  0  0  0
    0.6896  -52.5282  -24.0259 C   0  0  0  0  0  0  0  0  0  0  0  0
   -0.4744  -53.0788  -24.8131 C   0  0  0  0  0  0  0  0  0  0  0  0
   -0.2390  -52.9502  -26.2640 C   0  0  0  0  0  0  0  0  0  0  0  0
   -1.2864  -52.7959  -27.0991 N   0  0  0  0  0  0  0  0  0  0  0  0
   -1.1315  -52.6874  -28.4301 C   0  0  0  0  0  0  0  0  0  0  0  0
    0.1221  -52.7384  -28.9112 N   0  0  0  0  0  0  0  0  0  0  0  0
    1.2074  -52.8921  -28.1094 C   0  0  0  0  0  0  0  0  0  0  0  0
    1.0412  -53.0015  -26.7571 C   0  0  0  0  0  0  0  0  0  0  0  0
    2.2002  -53.1541  -25.8519 C   0  0  0  0  0  0  0  0  0  0  0  0
    3.3896  -53.2104  -26.2815 N   0  0  0  0  0  0  0  0  0  0  0  0
    1.8828  -53.2381  -24.4697 N   0  0  0  0  0  0  0  0  0  0  0  0
    3.7508  -53.1669  -27.2331 H   0  0  0  0  0  0  0  0  0  0  0  0
    2.5039  -53.7921  -23.8431 H   0  0  0  0  0  0  0  0  0  0  0  0
    0.4413  -52.7481  -22.5778 C   0  0  0  0  0  0  0  0  0  0  0  0
    0.6920  -51.7830  -21.6277 C   0  0  0  0  0  0  0  0  0  0  0  0
    0.4554  -52.0133  -20.2749 C   0  0  0  0  0  0  0  0  0  0  0  0
   -0.0428  -53.2477  -19.9053 C   0  0  0  0  0  0  0  0  0  0  0  0
   -0.3092  -54.2498  -20.8396 C   0  0  0  0  0  0  0  0  0  0  0  0
   -0.0553  -53.9655  -22.1667 C   0  0  0  0  0  0  0  0  0  0  0  0
   -0.3013  -54.9160  -23.1156 F   0  0  0  0  0  0  0  0  0  0  0  0
    0.7137  -51.0097  -19.2511 C   0  0  0  0  0  0  0  0  0  0  0  0
    1.4284  -49.8765  -19.5688 C   0  0  0  0  0  0  0  0  0  0  0  0
    1.6883  -48.9240  -18.6368 N   0  0  0  0  0  0  0  0  0  0  0  0
    1.2663  -49.0305  -17.3599 C   0  0  0  0  0  0  0  0  0  0  0  0
    0.5509  -50.1469  -17.0082 C   0  0  0  0  0  0  0  0  0  0  0  0
   -0.0023  -50.3016  -15.3609 Cl  0  0  0  0  0  0  0  0  0  0  0  0
    0.2721  -51.1395  -17.9510 C   0  0  0  0  0  0  0  0  0  0  0  0
  2  1  1  0  0  0
  2 15  1  0  0  0
 15 16  2  0  0  0
 16 17  1  0  0  0
 17 22  1  0  0  0
 22 23  2  0  0  0
 23 24  1  0  0  0
 24 25  2  0  0  0
 25 26  1  0  0  0
 26 27  1  0  0  0
 26 28  2  0  0  0
 17 18  2  0  0  0
 18 19  1  0  0  0
 19 20  2  0  0  0
 20 21  1  0  0  0
  2  3  1  0  0  0
  3  4  1  0  0  0
  4  5  2  0  0  0
  5  6  1  0  0  0
  6  7  2  0  0  0
  7  8  1  0  0  0
  8  9  2  0  0  0
  9 10  1  0  0  0
 10 11  2  0  0  0
 10 12  1  0  0  0
 12  2  1  0  0  0
 20 15  1  0  0  0
  9  4  1  0  0  0
 28 22  1  0  0  0
 11 13  1  0  0  0
 12 14  1  0  0  0
M  END
> <minimizedAffinity>
-8.96413

> <CNNscore>
0.2968350947

> <CNNaffinity>
6.6425499916

> <CNN_VS>
1.9717419147

> <CNNaffinity_variance>
0.1588863432

$$$$
[H]N=C1c2c([H])nc([H])nc2C([H])([H])[C@](c2c([H])c(-c3c([H])nc([H])c(Cl)c3[H])c([H])c([H])c2F)(C([H])([H])[H])N1[H]


 28 31  0  0  0  0  0  0  0  0999 V2000
    1.6635  -50.7446  -26.1821 C   0  0  0  0  0  0  0  0  0  0  0  0
    1.5768  -52.0338  -25.4231 C   0  0  0  0  0  0  0  0  0  0  0  0
    0.1175  -52.3994  -25.3038 C   0  0  0  0  0  0  0  0  0  0  0  0
   -0.4905  -52.5882  -26.6349 C   0  0  0  0  0  0  0  0  0  0  0  0
   -1.7997  -52.3207  -26.8147 N   0  0  0  0  0  0  0  0  0  0  0  0
   -2.4086  -52.4874  -28.0017 C   0  0  0  0  0  0  0  0  0  0  0  0
   -1.6582  -52.9369  -29.0218 N   0  0  0  0  0  0  0  0  0  0  0  0
   -0.3365  -53.2191  -28.8885 C   0  0  0  0  0  0  0  0  0  0  0  0
    0.2748  -53.0467  -27.6782 C   0  0  0  0  0  0  0  0  0  0  0  0
    1.7152  -53.3287  -27.4996 C   0  0  0  0  0  0  0  0  0  0  0  0
    2.4412  -53.7581  -28.4435 N   0  0  0  0  0  0  0  0  0  0  0  0
    2.2225  -53.0886  -26.1946 N   0  0  0  0  0  0  0  0  0  0  0  0
    2.2071  -53.9731  -29.4114 H   0  0  0  0  0  0  0  0  0  0  0  0
    3.0194  -53.6646  -25.8502 H   0  0  0  0  0  0  0  0  0  0  0  0
    2.1622  -51.9292  -24.0617 C   0  0  0  0  0  0  0  0  0  0  0  0
    1.3919  -51.9482  -22.9200 C   0  0  0  0  0  0  0  0  0  0  0  0
    1.9625  -51.8444  -21.6541 C   0  0  0  0  0  0  0  0  0  0  0  0
    3.3360  -51.7208  -21.5707 C   0  0  0  0  0  0  0  0  0  0  0  0
    4.1486  -51.6981  -22.7052 C   0  0  0  0  0  0  0  0  0  0  0  0
    3.5281  -51.8044  -23.9341 C   0  0  0  0  0  0  0  0  0  0  0  0
    4.2838  -51.7871  -25.0712 F   0  0  0  0  0  0  0  0  0  0  0  0
    1.1696  -51.8605  -20.4322 C   0  0  0  0  0  0  0  0  0  0  0  0
    0.3633  -52.9413  -20.1540 C   0  0  0  0  0  0  0  0  0  0  0  0
   -0.3900  -52.9854  -19.0252 N   0  0  0  0  0  0  0  0  0  0  0  0
   -0.3925  -51.9847  -18.1205 C   0  0  0  0  0  0  0  0  0  0  0  0
    0.3997  -50.8918  -18.3657 C   0  0  0  0  0  0  0  0  0  0  0  0
    0.4083  -49.5879  -17.2067 Cl  0  0  0  0  0  0  0  0  0  0  0  0
    1.1828  -50.8254  -19.5207 C   0  0  0  0  0  0  0  0  0  0  0  0
  2  1  1  0  0  0
  2 15  1  0  0  0
 15 16  2  0  0  0
 16 17  1  0  0  0
 17 22  1  0  0  0
 22 23  2  0  0  0
 23 24  1  0  0  0
 24 25  2  0  0  0
 25 26  1  0  0  0
 26 27  1  0  0  0
 26 28  2  0  0  0
 17 18  2  0  0  0
 18 19  1  0  0  0
 19 20  2  0  0  0
 20 21  1  0  0  0
  2  3  1  0  0  0
  3  4  1  0  0  0
  4  5  2  0  0  0
  5  6  1  0  0  0
  6  7  2  0  0  0
  7  8  1  0  0  0
  8  9  2  0  0  0
  9 10  1  0  0  0
 10 11  2  0  0  0
 10 12  1  0  0  0
 12  2  1  0  0  0
 20 15  1  0  0  0
  9  4  1  0  0  0
 28 22  1  0  0  0
 11 13  1  0  0  0
 12 14  1  0  0  0
M  END
> <minimizedAffinity>
-9.07937

> <CNNscore>
0.2956588566

> <CNNaffinity>
6.8973665237

> <CNN_VS>
2.0392675400

> <CNNaffinity_variance>
0.2027389109

$$$$
[H]/C(C(=O)/C([H])=C(\[H])c1c([H])c([H])c(F)c([H])c1[H])=C(/[H])c1c([H])c([H])c(F)c([H])c1[H]


 20 21  0  0  0  0  0  0  0  0999 V2000
   -1.5386  -55.1769  -22.2154 O   0  0  0  0  0  0  0  0  0  0  0  0
   -0.9359  -54.0328  -22.5055 C   0  0  0  0  0  0  0  0  0  0  0  0
   -0.6517  -53.2611  -21.3588 C   0  0  0  0  0  0  0  0  0  0  0  0
   -0.8481  -53.4471  -20.0898 C   0  0  0  0  0  0  0  0  0  0  0  0
   -0.4574  -52.4760  -19.0466 C   0  0  0  0  0  0  0  0  0  0  0  0
   -0.9605  -52.6781  -17.7543 C   0  0  0  0  0  0  0  0  0  0  0  0
   -0.6630  -51.8398  -16.7111 C   0  0  0  0  0  0  0  0  0  0  0  0
    0.1513  -50.7694  -16.9338 C   0  0  0  0  0  0  0  0  0  0  0  0
    0.4525  -49.9289  -15.8985 F   0  0  0  0  0  0  0  0  0  0  0  0
    0.6524  -50.5609  -18.2028 C   0  0  0  0  0  0  0  0  0  0  0  0
    0.3456  -51.4168  -19.2574 C   0  0  0  0  0  0  0  0  0  0  0  0
   -0.7196  -53.8523  -23.8812 C   0  0  0  0  0  0  0  0  0  0  0  0
   -0.2611  -52.8278  -24.5290 C   0  0  0  0  0  0  0  0  0  0  0  0
   -0.1134  -52.8525  -25.9923 C   0  0  0  0  0  0  0  0  0  0  0  0
    1.0181  -53.1612  -26.6643 C   0  0  0  0  0  0  0  0  0  0  0  0
    1.1073  -53.1703  -28.0626 C   0  0  0  0  0  0  0  0  0  0  0  0
    0.0011  -52.8528  -28.8066 C   0  0  0  0  0  0  0  0  0  0  0  0
    0.0133  -52.8408  -30.1604 F   0  0  0  0  0  0  0  0  0  0  0  0
   -1.1710  -52.5328  -28.1299 C   0  0  0  0  0  0  0  0  0  0  0  0
   -1.2403  -52.5288  -26.7673 C   0  0  0  0  0  0  0  0  0  0  0  0
  1  2  2  0  0  0
  2  3  1  0  0  0
  3  4  2  0  0  0
  4  5  1  0  0  0
  5  6  2  0  0  0
  6  7  1  0  0  0
  7  8  2  0  0  0
  8  9  1  0  0  0
  8 10  1  0  0  0
 10 11  2  0  0  0
  2 12  1  0  0  0
 12 13  2  0  0  0
 13 14  1  0  0  0
 14 15  2  0  0  0
 15 16  1  0  0  0
 16 17  2  0  0  0
 17 18  1  0  0  0
 17 19  1  0  0  0
 19 20  2  0  0  0
 11  5  1  0  0  0
 20 14  1  0  0  0
M  END
> <minimizedAffinity>
-7.80075

> <CNNscore>
0.8485436440

> <CNNaffinity>
5.8117613792

> <CNN_VS>
4.9315333366

> <CNNaffinity_variance>
0.1418541521

$$$$
[H]/C(C(=O)/C([H])=C(\[H])c1c([H])c([H])c(F)c([H])c1[H])=C(/[H])c1c([H])c([H])c(F)c([H])c1[H]


 20 21  0  0  0  0  0  0  0  0999 V2000
   -1.4806  -55.3609  -22.4007 O   0  0  0  0  0  0  0  0  0  0  0  0
   -0.9785  -54.1676  -22.6845 C   0  0  0  0  0  0  0  0  0  0  0  0
   -0.7875  -53.3703  -21.5360 C   0  0  0  0  0  0  0  0  0  0  0  0
   -0.2009  -53.5761  -20.3972 C   0  0  0  0  0  0  0  0  0  0  0  0
   -0.1242  -52.5692  -19.3182 C   0  0  0  0  0  0  0  0  0  0  0  0
    0.6520  -51.4266  -19.5542 C   0  0  0  0  0  0  0  0  0  0  0  0
    0.7930  -50.4296  -18.6238 C   0  0  0  0  0  0  0  0  0  0  0  0
    0.1570  -50.5494  -17.4239 C   0  0  0  0  0  0  0  0  0  0  0  0
    0.2929  -49.5594  -16.4911 F   0  0  0  0  0  0  0  0  0  0  0  0
   -0.6101  -51.6707  -17.1809 C   0  0  0  0  0  0  0  0  0  0  0  0
   -0.7485  -52.6793  -18.1310 C   0  0  0  0  0  0  0  0  0  0  0  0
   -0.7532  -53.9720  -24.0566 C   0  0  0  0  0  0  0  0  0  0  0  0
   -0.3715  -52.9135  -24.6995 C   0  0  0  0  0  0  0  0  0  0  0  0
   -0.1954  -52.9283  -26.1598 C   0  0  0  0  0  0  0  0  0  0  0  0
    0.9275  -53.3007  -26.8137 C   0  0  0  0  0  0  0  0  0  0  0  0
    1.0448  -53.2970  -28.2100 C   0  0  0  0  0  0  0  0  0  0  0  0
   -0.0229  -52.8987  -28.9710 C   0  0  0  0  0  0  0  0  0  0  0  0
    0.0180  -52.8696  -30.3240 F   0  0  0  0  0  0  0  0  0  0  0  0
   -1.1857  -52.5124  -28.3131 C   0  0  0  0  0  0  0  0  0  0  0  0
   -1.2828  -52.5220  -26.9522 C   0  0  0  0  0  0  0  0  0  0  0  0
  1  2  2  0  0  0
  2  3  1  0  0  0
  3  4  2  0  0  0
  4  5  1  0  0  0
  5  6  2  0  0  0
  6  7  1  0  0  0
  7  8  2  0  0  0
  8  9  1  0  0  0
  8 10  1  0  0  0
 10 11  2  0  0  0
  2 12  1  0  0  0
 12 13  2  0  0  0
 13 14  1  0  0  0
 14 15  2  0  0  0
 15 16  1  0  0  0
 16 17  2  0  0  0
 17 18  1  0  0  0
 17 19  1  0  0  0
 19 20  2  0  0  0
 11  5  1  0  0  0
 20 14  1  0  0  0
M  END
> <minimizedAffinity>
-7.85923

> <CNNscore>
0.8264568448

> <CNNaffinity>
5.7705903053

> <CNN_VS>
4.7691440582

> <CNNaffinity_variance>
0.1096213460

$$$$
[H]/C(C(=O)/C([H])=C(\[H])c1c([H])c([H])c(F)c([H])c1[H])=C(/[H])c1c([H])c([H])c(F)c([H])c1[H]


 20 21  0  0  0  0  0  0  0  0999 V2000
   -1.1974  -55.1496  -22.1881 O   0  0  0  0  0  0  0  0  0  0  0  0
   -0.8042  -53.9220  -22.4958 C   0  0  0  0  0  0  0  0  0  0  0  0
   -0.7112  -53.7131  -23.8883 C   0  0  0  0  0  0  0  0  0  0  0  0
   -0.5523  -52.6539  -24.6207 C   0  0  0  0  0  0  0  0  0  0  0  0
   -0.4823  -52.6781  -26.0966 C   0  0  0  0  0  0  0  0  0  0  0  0
    0.7661  -52.9319  -26.6806 C   0  0  0  0  0  0  0  0  0  0  0  0
    0.9458  -52.9772  -28.0389 C   0  0  0  0  0  0  0  0  0  0  0  0
   -0.1257  -52.7685  -28.8555 C   0  0  0  0  0  0  0  0  0  0  0  0
    0.0457  -52.8122  -30.2111 F   0  0  0  0  0  0  0  0  0  0  0  0
   -1.3599  -52.5178  -28.2910 C   0  0  0  0  0  0  0  0  0  0  0  0
   -1.5346  -52.4732  -26.9103 C   0  0  0  0  0  0  0  0  0  0  0  0
   -0.5714  -53.1150  -21.3705 C   0  0  0  0  0  0  0  0  0  0  0  0
   -0.5641  -53.4180  -20.1104 C   0  0  0  0  0  0  0  0  0  0  0  0
   -0.2929  -52.4021  -19.0817 C   0  0  0  0  0  0  0  0  0  0  0  0
    0.4610  -51.2929  -19.2501 C   0  0  0  0  0  0  0  0  0  0  0  0
    0.6893  -50.3535  -18.2358 C   0  0  0  0  0  0  0  0  0  0  0  0
    0.1281  -50.5507  -17.0012 C   0  0  0  0  0  0  0  0  0  0  0  0
    0.3054  -49.6861  -15.9746 F   0  0  0  0  0  0  0  0  0  0  0  0
   -0.6504  -51.6875  -16.8120 C   0  0  0  0  0  0  0  0  0  0  0  0
   -0.8624  -52.5922  -17.8110 C   0  0  0  0  0  0  0  0  0  0  0  0
  1  2  2  0  0  0
  2  3  1  0  0  0
  3  4  2  0  0  0
  4  5  1  0  0  0
  5  6  2  0  0  0
  6  7  1  0  0  0
  7  8  2  0  0  0
  8  9  1  0  0  0
  8 10  1  0  0  0
 10 11  2  0  0  0
  2 12  1  0  0  0
 12 13  2  0  0  0
 13 14  1  0  0  0
 14 15  2  0  0  0
 15 16  1  0  0  0
 16 17  2  0  0  0
 17 18  1  0  0  0
 17 19  1  0  0  0
 19 20  2  0  0  0
 11  5  1  0  0  0
 20 14  1  0  0  0
M  END
> <minimizedAffinity>
-7.79327

> <CNNscore>
0.8189004064

> <CNNaffinity>
5.7366080284

> <CNN_VS>
4.6977105141

> <CNNaffinity_variance>
0.1153170317

$$$$
[H]/C(C(=O)/C([H])=C(\[H])c1c([H])c([H])c(F)c([H])c1[H])=C(/[H])c1c([H])c([H])c(F)c([H])c1[H]


 20 21  0  0  0  0  0  0  0  0999 V2000
   -1.5151  -55.3534  -22.4540 O   0  0  0  0  0  0  0  0  0  0  0  0
   -0.9343  -54.1881  -22.7014 C   0  0  0  0  0  0  0  0  0  0  0  0
   -0.7112  -53.9723  -24.0779 C   0  0  0  0  0  0  0  0  0  0  0  0
   -0.4687  -52.9116  -24.7847 C   0  0  0  0  0  0  0  0  0  0  0  0
   -0.2647  -52.9279  -26.2482 C   0  0  0  0  0  0  0  0  0  0  0  0
   -1.3385  -52.5286  -27.0552 C   0  0  0  0  0  0  0  0  0  0  0  0
   -1.2598  -52.5053  -28.4236 C   0  0  0  0  0  0  0  0  0  0  0  0
   -0.0966  -52.8832  -29.0261 C   0  0  0  0  0  0  0  0  0  0  0  0
   -0.0105  -52.8626  -30.3903 F   0  0  0  0  0  0  0  0  0  0  0  0
    0.9674  -53.2782  -28.2409 C   0  0  0  0  0  0  0  0  0  0  0  0
    0.8797  -53.2993  -26.8514 C   0  0  0  0  0  0  0  0  0  0  0  0
   -0.6756  -53.4394  -21.5419 C   0  0  0  0  0  0  0  0  0  0  0  0
   -1.0136  -53.6602  -20.3104 C   0  0  0  0  0  0  0  0  0  0  0  0
   -0.6324  -52.7315  -19.2351 C   0  0  0  0  0  0  0  0  0  0  0  0
   -1.0277  -52.8156  -17.9453 C   0  0  0  0  0  0  0  0  0  0  0  0
   -0.6356  -51.9033  -16.9567 C   0  0  0  0  0  0  0  0  0  0  0  0
    0.1917  -50.8642  -17.2942 C   0  0  0  0  0  0  0  0  0  0  0  0
    0.6111  -49.9453  -16.3927 F   0  0  0  0  0  0  0  0  0  0  0  0
    0.6073  -50.7639  -18.6176 C   0  0  0  0  0  0  0  0  0  0  0  0
    0.2157  -51.6614  -19.5677 C   0  0  0  0  0  0  0  0  0  0  0  0
  1  2  2  0  0  0
  2  3  1  0  0  0
  3  4  2  0  0  0
  4  5  1  0  0  0
  5  6  2  0  0  0
  6  7  1  0  0  0
  7  8  2  0  0  0
  8  9  1  0  0  0
  8 10  1  0  0  0
 10 11  2  0  0  0
  2 12  1  0  0  0
 12 13  2  0  0  0
 13 14  1  0  0  0
 14 15  2  0  0  0
 15 16  1  0  0  0
 16 17  2  0  0  0
 17 18  1  0  0  0
 17 19  1  0  0  0
 19 20  2  0  0  0
 11  5  1  0  0  0
 20 14  1  0  0  0
M  END
> <minimizedAffinity>
-7.90539

> <CNNscore>
0.8158426881

> <CNNaffinity>
5.7719483376

> <CNN_VS>
4.7090020180

> <CNNaffinity_variance>
0.1426156014

$$$$
[H]/C(C(=O)/C([H])=C(\[H])c1c([H])c([H])c(F)c([H])c1[H])=C(/[H])c1c([H])c([H])c(F)c([H])c1[H]


 20 21  0  0  0  0  0  0  0  0999 V2000
   -0.9216  -54.9340  -21.9743 O   0  0  0  0  0  0  0  0  0  0  0  0
   -0.5571  -53.7204  -22.3623 C   0  0  0  0  0  0  0  0  0  0  0  0
   -0.2880  -52.8597  -21.2768 C   0  0  0  0  0  0  0  0  0  0  0  0
   -0.4697  -52.9590  -19.9960 C   0  0  0  0  0  0  0  0  0  0  0  0
   -0.1009  -51.9040  -19.0292 C   0  0  0  0  0  0  0  0  0  0  0  0
    0.6361  -50.8141  -19.5115 C   0  0  0  0  0  0  0  0  0  0  0  0
    1.0313  -49.7796  -18.7034 C   0  0  0  0  0  0  0  0  0  0  0  0
    0.6976  -49.8074  -17.3819 C   0  0  0  0  0  0  0  0  0  0  0  0
    1.0882  -48.7794  -16.5698 F   0  0  0  0  0  0  0  0  0  0  0  0
   -0.0282  -50.8761  -16.8962 C   0  0  0  0  0  0  0  0  0  0  0  0
   -0.4260  -51.9233  -17.7233 C   0  0  0  0  0  0  0  0  0  0  0  0
   -0.5227  -53.5706  -23.7580 C   0  0  0  0  0  0  0  0  0  0  0  0
   -0.3784  -52.5055  -24.4822 C   0  0  0  0  0  0  0  0  0  0  0  0
   -0.3713  -52.5756  -25.9514 C   0  0  0  0  0  0  0  0  0  0  0  0
   -1.4596  -52.4926  -26.7488 C   0  0  0  0  0  0  0  0  0  0  0  0
   -1.3995  -52.5652  -28.1469 C   0  0  0  0  0  0  0  0  0  0  0  0
   -0.1837  -52.7288  -28.7577 C   0  0  0  0  0  0  0  0  0  0  0  0
   -0.0494  -52.8072  -30.1026 F   0  0  0  0  0  0  0  0  0  0  0  0
    0.9457  -52.8159  -27.9508 C   0  0  0  0  0  0  0  0  0  0  0  0
    0.8691  -52.7433  -26.5905 C   0  0  0  0  0  0  0  0  0  0  0  0
  1  2  2  0  0  0
  2  3  1  0  0  0
  3  4  2  0  0  0
  4  5  1  0  0  0
  5  6  2  0  0  0
  6  7  1  0  0  0
  7  8  2  0  0  0
  8  9  1  0  0  0
  8 10  1  0  0  0
 10 11  2  0  0  0
  2 12  1  0  0  0
 12 13  2  0  0  0
 13 14  1  0  0  0
 14 15  2  0  0  0
 15 16  1  0  0  0
 16 17  2  0  0  0
 17 18  1  0  0  0
 17 19  1  0  0  0
 19 20  2  0  0  0
 11  5  1  0  0  0
 20 14  1  0  0  0
M  END
> <minimizedAffinity>
-7.61452

> <CNNscore>
0.7952283621

> <CNNaffinity>
5.6631827354

> <CNN_VS>
4.5035233498

> <CNNaffinity_variance>
0.1757164896

$$$$
[H]/C(C(=O)/C([H])=C(\[H])c1c([H])c([H])c(F)c([H])c1[H])=C(/[H])c1c([H])c([H])c(F)c([H])c1[H]


 20 21  0  0  0  0  0  0  0  0999 V2000
   -1.4646  -54.9883  -22.1736 O   0  0  0  0  0  0  0  0  0  0  0  0
   -0.6707  -53.9693  -22.4700 C   0  0  0  0  0  0  0  0  0  0  0  0
   -0.5034  -53.7960  -23.8604 C   0  0  0  0  0  0  0  0  0  0  0  0
   -0.5521  -52.7604  -24.6404 C   0  0  0  0  0  0  0  0  0  0  0  0
   -0.3394  -52.8211  -26.1016 C   0  0  0  0  0  0  0  0  0  0  0  0
   -1.4149  -52.4657  -26.9267 C   0  0  0  0  0  0  0  0  0  0  0  0
   -1.3287  -52.4857  -28.2948 C   0  0  0  0  0  0  0  0  0  0  0  0
   -0.1563  -52.8642  -28.8785 C   0  0  0  0  0  0  0  0  0  0  0  0
   -0.0626  -52.8867  -30.2422 F   0  0  0  0  0  0  0  0  0  0  0  0
    0.9094  -53.2162  -28.0753 C   0  0  0  0  0  0  0  0  0  0  0  0
    0.8142  -53.1934  -26.6863 C   0  0  0  0  0  0  0  0  0  0  0  0
   -0.1808  -53.2994  -21.3373 C   0  0  0  0  0  0  0  0  0  0  0  0
    0.8497  -52.5249  -21.2035 C   0  0  0  0  0  0  0  0  0  0  0  0
    1.1863  -51.9181  -19.9065 C   0  0  0  0  0  0  0  0  0  0  0  0
    2.4255  -51.5597  -19.5029 C   0  0  0  0  0  0  0  0  0  0  0  0
    2.6942  -50.9838  -18.2541 C   0  0  0  0  0  0  0  0  0  0  0  0
    1.6608  -50.7639  -17.3814 C   0  0  0  0  0  0  0  0  0  0  0  0
    1.8452  -50.2120  -16.1589 F   0  0  0  0  0  0  0  0  0  0  0  0
    0.3795  -51.1273  -17.7820 C   0  0  0  0  0  0  0  0  0  0  0  0
    0.1357  -51.6872  -19.0020 C   0  0  0  0  0  0  0  0  0  0  0  0
  1  2  2  0  0  0
  2  3  1  0  0  0
  3  4  2  0  0  0
  4  5  1  0  0  0
  5  6  2  0  0  0
  6  7  1  0  0  0
  7  8  2  0  0  0
  8  9  1  0  0  0
  8 10  1  0  0  0
 10 11  2  0  0  0
  2 12  1  0  0  0
 12 13  2  0  0  0
 13 14  1  0  0  0
 14 15  2  0  0  0
 15 16  1  0  0  0
 16 17  2  0  0  0
 17 18  1  0  0  0
 17 19  1  0  0  0
 19 20  2  0  0  0
 11  5  1  0  0  0
 20 14  1  0  0  0
M  END
> <minimizedAffinity>
-7.47989

> <CNNscore>
0.7441207767

> <CNNaffinity>
5.6773138046

> <CNN_VS>
4.2246069908

> <CNNaffinity_variance>
0.1976191849

$$$$
[H]/C(C(=O)/C([H])=C(\[H])c1c([H])c([H])c(F)c([H])c1[H])=C(/[H])c1c([H])c([H])c(F)c([H])c1[H]


 20 21  0  0  0  0  0  0  0  0999 V2000
   -1.4612  -54.7329  -21.0916 O   0  0  0  0  0  0  0  0  0  0  0  0
   -0.6553  -53.8054  -21.5884 C   0  0  0  0  0  0  0  0  0  0  0  0
    0.0841  -53.1355  -20.5906 C   0  0  0  0  0  0  0  0  0  0  0  0
    0.2329  -51.8839  -20.2825 C   0  0  0  0  0  0  0  0  0  0  0  0
    1.0789  -51.4064  -19.1689 C   0  0  0  0  0  0  0  0  0  0  0  0
    0.4304  -50.9647  -18.0077 C   0  0  0  0  0  0  0  0  0  0  0  0
    1.1160  -50.5015  -16.9148 C   0  0  0  0  0  0  0  0  0  0  0  0
    2.4784  -50.4673  -16.9538 C   0  0  0  0  0  0  0  0  0  0  0  0
    3.1691  -50.0066  -15.8678 F   0  0  0  0  0  0  0  0  0  0  0  0
    3.1273  -50.9000  -18.0924 C   0  0  0  0  0  0  0  0  0  0  0  0
    2.4239  -51.3692  -19.1987 C   0  0  0  0  0  0  0  0  0  0  0  0
   -0.7224  -53.7031  -22.9872 C   0  0  0  0  0  0  0  0  0  0  0  0
   -0.0572  -52.9481  -23.8040 C   0  0  0  0  0  0  0  0  0  0  0  0
   -0.2893  -53.0023  -25.2556 C   0  0  0  0  0  0  0  0  0  0  0  0
   -1.1056  -52.1816  -25.9535 C   0  0  0  0  0  0  0  0  0  0  0  0
   -1.2927  -52.2747  -27.3390 C   0  0  0  0  0  0  0  0  0  0  0  0
   -0.6223  -53.2412  -28.0422 C   0  0  0  0  0  0  0  0  0  0  0  0
   -0.7540  -53.3904  -29.3814 F   0  0  0  0  0  0  0  0  0  0  0  0
    0.2216  -54.0936  -27.3383 C   0  0  0  0  0  0  0  0  0  0  0  0
    0.3921  -53.9889  -25.9887 C   0  0  0  0  0  0  0  0  0  0  0  0
  1  2  2  0  0  0
  2  3  1  0  0  0
  3  4  2  0  0  0
  4  5  1  0  0  0
  5  6  2  0  0  0
  6  7  1  0  0  0
  7  8  2  0  0  0
  8  9  1  0  0  0
  8 10  1  0  0  0
 10 11  2  0  0  0
  2 12  1  0  0  0
 12 13  2  0  0  0
 13 14  1  0  0  0
 14 15  2  0  0  0
 15 16  1  0  0  0
 16 17  2  0  0  0
 17 18  1  0  0  0
 17 19  1  0  0  0
 19 20  2  0  0  0
 11  5  1  0  0  0
 20 14  1  0  0  0
M  END
> <minimizedAffinity>
-7.15685

> <CNNscore>
0.6583661437

> <CNNaffinity>
5.5169095993

> <CNN_VS>
3.6321465969

> <CNNaffinity_variance>
0.2120096385

$$$$
[H]/C(C(=O)/C([H])=C(\[H])c1c([H])c([H])c(F)c([H])c1[H])=C(/[H])c1c([H])c([H])c(F)c([H])c1[H]


 20 21  0  0  0  0  0  0  0  0999 V2000
   -1.6429  -55.0250  -22.0558 O   0  0  0  0  0  0  0  0  0  0  0  0
   -0.8854  -53.9396  -21.9889 C   0  0  0  0  0  0  0  0  0  0  0  0
   -0.1662  -53.7032  -23.1798 C   0  0  0  0  0  0  0  0  0  0  0  0
   -0.4470  -53.8653  -24.4361 C   0  0  0  0  0  0  0  0  0  0  0  0
    0.4857  -53.5408  -25.5354 C   0  0  0  0  0  0  0  0  0  0  0  0
    1.7758  -53.1199  -25.1856 C   0  0  0  0  0  0  0  0  0  0  0  0
    2.7212  -52.7937  -26.1232 C   0  0  0  0  0  0  0  0  0  0  0  0
    2.3996  -52.8802  -27.4452 C   0  0  0  0  0  0  0  0  0  0  0  0
    3.3371  -52.5565  -28.3861 F   0  0  0  0  0  0  0  0  0  0  0  0
    1.1319  -53.2937  -27.8009 C   0  0  0  0  0  0  0  0  0  0  0  0
    0.1768  -53.6234  -26.8427 C   0  0  0  0  0  0  0  0  0  0  0  0
   -0.9722  -53.2773  -20.7537 C   0  0  0  0  0  0  0  0  0  0  0  0
   -0.1084  -53.1829  -19.7921 C   0  0  0  0  0  0  0  0  0  0  0  0
   -0.4094  -52.4282  -18.5659 C   0  0  0  0  0  0  0  0  0  0  0  0
   -1.2753  -52.8084  -17.6001 C   0  0  0  0  0  0  0  0  0  0  0  0
   -1.5273  -52.0517  -16.4480 C   0  0  0  0  0  0  0  0  0  0  0  0
   -0.8722  -50.8610  -16.2718 C   0  0  0  0  0  0  0  0  0  0  0  0
   -1.0655  -50.0777  -15.1845 F   0  0  0  0  0  0  0  0  0  0  0  0
    0.0221  -50.4559  -17.2568 C   0  0  0  0  0  0  0  0  0  0  0  0
    0.2556  -51.2053  -18.3728 C   0  0  0  0  0  0  0  0  0  0  0  0
  1  2  2  0  0  0
  2  3  1  0  0  0
  3  4  2  0  0  0
  4  5  1  0  0  0
  5  6  2  0  0  0
  6  7  1  0  0  0
  7  8  2  0  0  0
  8  9  1  0  0  0
  8 10  1  0  0  0
 10 11  2  0  0  0
  2 12  1  0  0  0
 12 13  2  0  0  0
 13 14  1  0  0  0
 14 15  2  0  0  0
 15 16  1  0  0  0
 16 17  2  0  0  0
 17 18  1  0  0  0
 17 19  1  0  0  0
 19 20  2  0  0  0
 11  5  1  0  0  0
 20 14  1  0  0  0
M  END
> <minimizedAffinity>
-7.36963

> <CNNscore>
0.6294673085

> <CNNaffinity>
5.3921995163

> <CNN_VS>
3.3942131996

> <CNNaffinity_variance>
0.0979456604

$$$$
[H]/C(C(=O)/C([H])=C(\[H])c1c([H])c([H])c(F)c([H])c1[H])=C(/[H])c1c([H])c([H])c(F)c([H])c1[H]


 20 21  0  0  0  0  0  0  0  0999 V2000
    0.0101  -54.1662  -22.0352 O   0  0  0  0  0  0  0  0  0  0  0  0
    0.1869  -53.0027  -22.6447 C   0  0  0  0  0  0  0  0  0  0  0  0
    0.6563  -51.9972  -21.7730 C   0  0  0  0  0  0  0  0  0  0  0  0
    1.0316  -50.7682  -21.9520 C   0  0  0  0  0  0  0  0  0  0  0  0
    1.4960  -49.8836  -20.8631 C   0  0  0  0  0  0  0  0  0  0  0  0
    1.2884  -50.3155  -19.5463 C   0  0  0  0  0  0  0  0  0  0  0  0
    1.6788  -49.5753  -18.4605 C   0  0  0  0  0  0  0  0  0  0  0  0
    2.2918  -48.3747  -18.6639 C   0  0  0  0  0  0  0  0  0  0  0  0
    2.6840  -47.6308  -17.5861 F   0  0  0  0  0  0  0  0  0  0  0  0
    2.5013  -47.9396  -19.9568 C   0  0  0  0  0  0  0  0  0  0  0  0
    2.1018  -48.6971  -21.0547 C   0  0  0  0  0  0  0  0  0  0  0  0
   -0.1322  -53.0379  -24.0117 C   0  0  0  0  0  0  0  0  0  0  0  0
   -0.1451  -52.0876  -24.8929 C   0  0  0  0  0  0  0  0  0  0  0  0
   -0.5162  -52.3481  -26.2922 C   0  0  0  0  0  0  0  0  0  0  0  0
   -1.7645  -52.2654  -26.8041 C   0  0  0  0  0  0  0  0  0  0  0  0
   -2.0664  -52.5242  -28.1477 C   0  0  0  0  0  0  0  0  0  0  0  0
   -1.0581  -52.8812  -29.0044 C   0  0  0  0  0  0  0  0  0  0  0  0
   -1.2753  -53.1459  -30.3142 F   0  0  0  0  0  0  0  0  0  0  0  0
    0.2321  -52.9706  -28.4928 C   0  0  0  0  0  0  0  0  0  0  0  0
    0.5084  -52.7151  -27.1813 C   0  0  0  0  0  0  0  0  0  0  0  0
  1  2  2  0  0  0
  2  3  1  0  0  0
  3  4  2  0  0  0
  4  5  1  0  0  0
  5  6  2  0  0  0
  6  7  1  0  0  0
  7  8  2  0  0  0
  8  9  1  0  0  0
  8 10  1  0  0  0
 10 11  2  0  0  0
  2 12  1  0  0  0
 12 13  2  0  0  0
 13 14  1  0  0  0
 14 15  2  0  0  0
 15 16  1  0  0  0
 16 17  2  0  0  0
 17 18  1  0  0  0
 17 19  1  0  0  0
 19 20  2  0  0  0
 11  5  1  0  0  0
 20 14  1  0  0  0
M  END
> <minimizedAffinity>
-6.73775

> <CNNscore>
0.6074649692

> <CNNaffinity>
5.3768811226

> <CNN_VS>
3.2662668228

> <CNNaffinity_variance>
0.5212811232

$$$$
[H]Oc1c([H])c([H])c(N([H])c2nc([H])c(F)c(N([H])c3c([H])c([H])c(C(=O)N([H])[H])c([H])c3[H])n2)c([H])c1[H]


 30 32  0  0  0  0  0  0  0  0999 V2000
    0.1850  -52.4768  -21.4201 C   0  0  0  0  0  0  0  0  0  0  0  0
    0.0180  -53.1329  -22.5564 N   0  0  0  0  0  0  0  0  0  0  0  0
   -0.8799  -54.1533  -22.6772 C   0  0  0  0  0  0  0  0  0  0  0  0
   -1.5985  -54.4751  -21.5912 N   0  0  0  0  0  0  0  0  0  0  0  0
   -1.4835  -53.8604  -20.4200 C   0  0  0  0  0  0  0  0  0  0  0  0
   -0.5793  -52.8299  -20.2917 C   0  0  0  0  0  0  0  0  0  0  0  0
   -0.4187  -52.1697  -19.1312 F   0  0  0  0  0  0  0  0  0  0  0  0
    1.1232  -51.4267  -21.2494 N   0  0  0  0  0  0  0  0  0  0  0  0
    1.0031  -50.8102  -20.3911 H   0  0  0  0  0  0  0  0  0  0  0  0
    4.4431  -50.5518  -23.6942 C   0  0  0  0  0  0  0  0  0  0  0  0
    3.1961  -50.1368  -24.0267 C   0  0  0  0  0  0  0  0  0  0  0  0
    2.0717  -50.4004  -23.2366 C   0  0  0  0  0  0  0  0  0  0  0  0
    2.2036  -51.0960  -22.0891 C   0  0  0  0  0  0  0  0  0  0  0  0
    3.4915  -51.5391  -21.7202 C   0  0  0  0  0  0  0  0  0  0  0  0
    4.5743  -51.2691  -22.5082 C   0  0  0  0  0  0  0  0  0  0  0  0
    6.5917  -51.2749  -24.7037 N   0  0  0  0  0  0  0  0  0  0  0  0
    5.6182  -50.2801  -24.5136 C   0  0  0  0  0  0  0  0  0  0  0  0
    5.7547  -49.1607  -25.0446 O   0  0  0  0  0  0  0  0  0  0  0  0
    7.4358  -51.2887  -24.1005 H   0  0  0  0  0  0  0  0  0  0  0  0
    6.4943  -52.0030  -25.4336 H   0  0  0  0  0  0  0  0  0  0  0  0
   -0.9724  -54.8153  -23.9139 N   0  0  0  0  0  0  0  0  0  0  0  0
   -1.3601  -55.8047  -23.9107 H   0  0  0  0  0  0  0  0  0  0  0  0
   -0.5942  -54.2716  -25.1432 C   0  0  0  0  0  0  0  0  0  0  0  0
    0.0625  -54.9543  -26.1239 C   0  0  0  0  0  0  0  0  0  0  0  0
    0.4507  -54.3540  -27.3417 C   0  0  0  0  0  0  0  0  0  0  0  0
    0.1600  -53.0294  -27.5602 C   0  0  0  0  0  0  0  0  0  0  0  0
    0.5392  -52.4284  -28.7588 O   0  0  0  0  0  0  0  0  0  0  0  0
   -0.5055  -52.2996  -26.5929 C   0  0  0  0  0  0  0  0  0  0  0  0
   -0.8663  -52.9130  -25.4242 C   0  0  0  0  0  0  0  0  0  0  0  0
    1.4560  -51.9980  -28.7798 H   0  0  0  0  0  0  0  0  0  0  0  0
 16 17  1  0  0  0
 17 18  2  0  0  0
 17 10  1  0  0  0
 10 11  2  0  0  0
 11 12  1  0  0  0
 12 13  2  0  0  0
 13  8  1  0  0  0
  8  1  1  0  0  0
  1  2  2  0  0  0
  2  3  1  0  0  0
  3 21  1  0  0  0
 21 23  1  0  0  0
 23 24  2  0  0  0
 24 25  1  0  0  0
 25 26  2  0  0  0
 26 27  1  0  0  0
 26 28  1  0  0  0
 28 29  2  0  0  0
  3  4  2  0  0  0
  4  5  1  0  0  0
  5  6  2  0  0  0
  6  7  1  0  0  0
 13 14  1  0  0  0
 14 15  2  0  0  0
 15 10  1  0  0  0
  6  1  1  0  0  0
 29 23  1  0  0  0
 16 19  1  0  0  0
 16 20  1  0  0  0
  8  9  1  0  0  0
 21 22  1  0  0  0
 27 30  1  0  0  0
M  END
> <minimizedAffinity>
-7.76373

> <CNNscore>
0.9228267074

> <CNNaffinity>
6.9949235916

> <CNN_VS>
6.4551024437

> <CNNaffinity_variance>
0.0454477929

$$$$
[H]Oc1c([H])c([H])c(N([H])c2nc([H])c(F)c(N([H])c3c([H])c([H])c(C(=O)N([H])[H])c([H])c3[H])n2)c([H])c1[H]


 30 32  0  0  0  0  0  0  0  0999 V2000
    0.4984  -52.8320  -21.3293 C   0  0  0  0  0  0  0  0  0  0  0  0
    0.2705  -53.3825  -22.5103 N   0  0  0  0  0  0  0  0  0  0  0  0
   -0.8278  -54.1566  -22.7476 C   0  0  0  0  0  0  0  0  0  0  0  0
   -1.6820  -54.3447  -21.7305 N   0  0  0  0  0  0  0  0  0  0  0  0
   -1.5168  -53.8238  -20.5205 C   0  0  0  0  0  0  0  0  0  0  0  0
   -0.4105  -53.0416  -20.2747 C   0  0  0  0  0  0  0  0  0  0  0  0
   -0.1897  -52.4867  -19.0698 F   0  0  0  0  0  0  0  0  0  0  0  0
    1.6390  -52.0406  -21.0379 N   0  0  0  0  0  0  0  0  0  0  0  0
    2.3476  -52.4510  -20.3593 H   0  0  0  0  0  0  0  0  0  0  0  0
    2.6204  -48.2835  -22.6765 C   0  0  0  0  0  0  0  0  0  0  0  0
    1.7468  -48.3947  -21.6459 C   0  0  0  0  0  0  0  0  0  0  0  0
    1.4031  -49.6230  -21.0703 C   0  0  0  0  0  0  0  0  0  0  0  0
    1.9484  -50.7628  -21.5410 C   0  0  0  0  0  0  0  0  0  0  0  0
    2.8612  -50.6741  -22.6133 C   0  0  0  0  0  0  0  0  0  0  0  0
    3.1813  -49.4631  -23.1585 C   0  0  0  0  0  0  0  0  0  0  0  0
    3.3756  -46.9486  -24.6274 N   0  0  0  0  0  0  0  0  0  0  0  0
    2.9822  -47.0064  -23.2801 C   0  0  0  0  0  0  0  0  0  0  0  0
    2.9406  -45.9662  -22.5946 O   0  0  0  0  0  0  0  0  0  0  0  0
    4.3847  -46.9615  -24.8683 H   0  0  0  0  0  0  0  0  0  0  0  0
    2.6848  -46.8928  -25.3969 H   0  0  0  0  0  0  0  0  0  0  0  0
   -0.9773  -54.7261  -24.0241 N   0  0  0  0  0  0  0  0  0  0  0  0
   -1.4383  -55.6817  -24.0819 H   0  0  0  0  0  0  0  0  0  0  0  0
   -0.5665  -54.1316  -25.2189 C   0  0  0  0  0  0  0  0  0  0  0  0
   -0.7846  -52.8272  -25.5512 C   0  0  0  0  0  0  0  0  0  0  0  0
   -0.3753  -52.2762  -26.7852 C   0  0  0  0  0  0  0  0  0  0  0  0
    0.2707  -53.0757  -27.6965 C   0  0  0  0  0  0  0  0  0  0  0  0
    0.6782  -52.5409  -28.9169 O   0  0  0  0  0  0  0  0  0  0  0  0
    0.5133  -54.4040  -27.4002 C   0  0  0  0  0  0  0  0  0  0  0  0
    0.1025  -54.9052  -26.1951 C   0  0  0  0  0  0  0  0  0  0  0  0
    0.0136  -52.5942  -29.6796 H   0  0  0  0  0  0  0  0  0  0  0  0
 16 17  1  0  0  0
 17 18  2  0  0  0
 17 10  1  0  0  0
 10 11  2  0  0  0
 11 12  1  0  0  0
 12 13  2  0  0  0
 13  8  1  0  0  0
  8  1  1  0  0  0
  1  2  2  0  0  0
  2  3  1  0  0  0
  3 21  1  0  0  0
 21 23  1  0  0  0
 23 24  2  0  0  0
 24 25  1  0  0  0
 25 26  2  0  0  0
 26 27  1  0  0  0
 26 28  1  0  0  0
 28 29  2  0  0  0
  3  4  2  0  0  0
  4  5  1  0  0  0
  5  6  2  0  0  0
  6  7  1  0  0  0
 13 14  1  0  0  0
 14 15  2  0  0  0
 15 10  1  0  0  0
  6  1  1  0  0  0
 29 23  1  0  0  0
 16 19  1  0  0  0
 16 20  1  0  0  0
  8  9  1  0  0  0
 21 22  1  0  0  0
 27 30  1  0  0  0
M  END
> <minimizedAffinity>
-7.62389

> <CNNscore>
0.8400801420

> <CNNaffinity>
6.8915987015

> <CNN_VS>
5.7894949913

> <CNNaffinity_variance>
0.2123560160

$$$$
[H]Oc1c([H])c([H])c(N([H])c2nc([H])c(F)c(N([H])c3c([H])c([H])c(C(=O)N([H])[H])c([H])c3[H])n2)c([H])c1[H]


 30 32  0  0  0  0  0  0  0  0999 V2000
    1.0709  -52.5501  -21.9400 C   0  0  0  0  0  0  0  0  0  0  0  0
    0.5825  -53.1094  -23.0347 N   0  0  0  0  0  0  0  0  0  0  0  0
   -0.5638  -53.8495  -23.0191 C   0  0  0  0  0  0  0  0  0  0  0  0
   -1.1891  -53.9944  -21.8411 N   0  0  0  0  0  0  0  0  0  0  0  0
   -0.7567  -53.4621  -20.7043 C   0  0  0  0  0  0  0  0  0  0  0  0
    0.3994  -52.7142  -20.7135 C   0  0  0  0  0  0  0  0  0  0  0  0
    0.8861  -52.1500  -19.5940 F   0  0  0  0  0  0  0  0  0  0  0  0
    2.2703  -51.7935  -21.9120 N   0  0  0  0  0  0  0  0  0  0  0  0
    3.1355  -52.2490  -22.3306 H   0  0  0  0  0  0  0  0  0  0  0  0
    2.9770  -47.9632  -20.3016 C   0  0  0  0  0  0  0  0  0  0  0  0
    1.9761  -48.1787  -21.1902 C   0  0  0  0  0  0  0  0  0  0  0  0
    1.7057  -49.4369  -21.7396 C   0  0  0  0  0  0  0  0  0  0  0  0
    2.4573  -50.5000  -21.3888 C   0  0  0  0  0  0  0  0  0  0  0  0
    3.5053  -50.3021  -20.4650 C   0  0  0  0  0  0  0  0  0  0  0  0
    3.7498  -49.0640  -19.9421 C   0  0  0  0  0  0  0  0  0  0  0  0
    2.9622  -46.3942  -18.3789 N   0  0  0  0  0  0  0  0  0  0  0  0
    3.2634  -46.6543  -19.7261 C   0  0  0  0  0  0  0  0  0  0  0  0
    3.7769  -45.7674  -20.4356 O   0  0  0  0  0  0  0  0  0  0  0  0
    2.0678  -45.9290  -18.1337 H   0  0  0  0  0  0  0  0  0  0  0  0
    3.6098  -46.6540  -17.6138 H   0  0  0  0  0  0  0  0  0  0  0  0
   -0.9964  -54.4317  -24.2232 N   0  0  0  0  0  0  0  0  0  0  0  0
   -1.6792  -55.2431  -24.1561 H   0  0  0  0  0  0  0  0  0  0  0  0
   -0.5972  -54.0247  -25.4979 C   0  0  0  0  0  0  0  0  0  0  0  0
    0.0878  -54.8048  -26.3819 C   0  0  0  0  0  0  0  0  0  0  0  0
    0.4961  -54.3401  -27.6514 C   0  0  0  0  0  0  0  0  0  0  0  0
    0.1964  -53.0522  -28.0235 C   0  0  0  0  0  0  0  0  0  0  0  0
    0.5953  -52.5849  -29.2741 O   0  0  0  0  0  0  0  0  0  0  0  0
   -0.4976  -52.2271  -27.1583 C   0  0  0  0  0  0  0  0  0  0  0  0
   -0.8774  -52.7098  -25.9357 C   0  0  0  0  0  0  0  0  0  0  0  0
    1.5078  -52.1478  -29.3247 H   0  0  0  0  0  0  0  0  0  0  0  0
 16 17  1  0  0  0
 17 18  2  0  0  0
 17 10  1  0  0  0
 10 11  2  0  0  0
 11 12  1  0  0  0
 12 13  2  0  0  0
 13  8  1  0  0  0
  8  1  1  0  0  0
  1  2  2  0  0  0
  2  3  1  0  0  0
  3 21  1  0  0  0
 21 23  1  0  0  0
 23 24  2  0  0  0
 24 25  1  0  0  0
 25 26  2  0  0  0
 26 27  1  0  0  0
 26 28  1  0  0  0
 28 29  2  0  0  0
  3  4  2  0  0  0
  4  5  1  0  0  0
  5  6  2  0  0  0
  6  7  1  0  0  0
 13 14  1  0  0  0
 14 15  2  0  0  0
 15 10  1  0  0  0
  6  1  1  0  0  0
 29 23  1  0  0  0
 16 19  1  0  0  0
 16 20  1  0  0  0
  8  9  1  0  0  0
 21 22  1  0  0  0
 27 30  1  0  0  0
M  END
> <minimizedAffinity>
-7.18706

> <CNNscore>
0.7193776965

> <CNNaffinity>
6.7063612938

> <CNN_VS>
4.8244066238

> <CNNaffinity_variance>
0.3246516585

$$$$
[H]Oc1c([H])c([H])c(N([H])c2nc([H])c(F)c(N([H])c3c([H])c([H])c(C(=O)N([H])[H])c([H])c3[H])n2)c([H])c1[H]


 30 32  0  0  0  0  0  0  0  0999 V2000
    0.0570  -53.6239  -24.3965 C   0  0  0  0  0  0  0  0  0  0  0  0
   -0.1724  -53.0813  -23.2121 N   0  0  0  0  0  0  0  0  0  0  0  0
   -0.9199  -53.7116  -22.2603 C   0  0  0  0  0  0  0  0  0  0  0  0
   -1.4224  -54.9167  -22.5680 N   0  0  0  0  0  0  0  0  0  0  0  0
   -1.2329  -55.5206  -23.7351 C   0  0  0  0  0  0  0  0  0  0  0  0
   -0.4795  -54.8898  -24.6997 C   0  0  0  0  0  0  0  0  0  0  0  0
   -0.2526  -55.4517  -25.9001 F   0  0  0  0  0  0  0  0  0  0  0  0
    0.8092  -52.9906  -25.4187 N   0  0  0  0  0  0  0  0  0  0  0  0
    0.4928  -53.1561  -26.4205 H   0  0  0  0  0  0  0  0  0  0  0  0
    4.2798  -50.6440  -24.9579 C   0  0  0  0  0  0  0  0  0  0  0  0
    3.1284  -50.1104  -25.4346 C   0  0  0  0  0  0  0  0  0  0  0  0
    1.9544  -50.8552  -25.5933 C   0  0  0  0  0  0  0  0  0  0  0  0
    1.9380  -52.1633  -25.2666 C   0  0  0  0  0  0  0  0  0  0  0  0
    3.1239  -52.7426  -24.7677 C   0  0  0  0  0  0  0  0  0  0  0  0
    4.2577  -51.9947  -24.6214 C   0  0  0  0  0  0  0  0  0  0  0  0
    6.7560  -50.5095  -24.8636 N   0  0  0  0  0  0  0  0  0  0  0  0
    5.5060  -49.8727  -24.7906 C   0  0  0  0  0  0  0  0  0  0  0  0
    5.4394  -48.6456  -24.5824 O   0  0  0  0  0  0  0  0  0  0  0  0
    7.2297  -50.8115  -23.9913 H   0  0  0  0  0  0  0  0  0  0  0  0
    7.2259  -50.6896  -25.7686 H   0  0  0  0  0  0  0  0  0  0  0  0
   -1.1375  -53.0501  -21.0392 N   0  0  0  0  0  0  0  0  0  0  0  0
   -2.0278  -53.2841  -20.5085 H   0  0  0  0  0  0  0  0  0  0  0  0
   -0.2735  -52.1108  -20.4726 C   0  0  0  0  0  0  0  0  0  0  0  0
    0.3214  -52.2411  -19.2526 C   0  0  0  0  0  0  0  0  0  0  0  0
    1.1669  -51.2504  -18.7070 C   0  0  0  0  0  0  0  0  0  0  0  0
    1.4089  -50.1044  -19.4247 C   0  0  0  0  0  0  0  0  0  0  0  0
    2.2418  -49.1212  -18.8944 O   0  0  0  0  0  0  0  0  0  0  0  0
    0.8270  -49.9314  -20.6667 C   0  0  0  0  0  0  0  0  0  0  0  0
    0.0126  -50.9116  -21.1648 C   0  0  0  0  0  0  0  0  0  0  0  0
    1.7971  -48.4058  -18.3317 H   0  0  0  0  0  0  0  0  0  0  0  0
 16 17  1  0  0  0
 17 18  2  0  0  0
 17 10  1  0  0  0
 10 11  2  0  0  0
 11 12  1  0  0  0
 12 13  2  0  0  0
 13  8  1  0  0  0
  8  1  1  0  0  0
  1  2  2  0  0  0
  2  3  1  0  0  0
  3 21  1  0  0  0
 21 23  1  0  0  0
 23 24  2  0  0  0
 24 25  1  0  0  0
 25 26  2  0  0  0
 26 27  1  0  0  0
 26 28  1  0  0  0
 28 29  2  0  0  0
  3  4  2  0  0  0
  4  5  1  0  0  0
  5  6  2  0  0  0
  6  7  1  0  0  0
 13 14  1  0  0  0
 14 15  2  0  0  0
 15 10  1  0  0  0
  6  1  1  0  0  0
 29 23  1  0  0  0
 16 19  1  0  0  0
 16 20  1  0  0  0
  8  9  1  0  0  0
 21 22  1  0  0  0
 27 30  1  0  0  0
M  END
> <minimizedAffinity>
-6.84804

> <CNNscore>
0.7084808946

> <CNNaffinity>
6.6043486595

> <CNN_VS>
4.6790547371

> <CNNaffinity_variance>
0.1734523028

$$$$
[H]Oc1c([H])c([H])c(N([H])c2nc([H])c(F)c(N([H])c3c([H])c([H])c(C(=O)N([H])[H])c([H])c3[H])n2)c([H])c1[H]


 30 32  0  0  0  0  0  0  0  0999 V2000
    2.9688  -50.4827  -24.3921 C   0  0  0  0  0  0  0  0  0  0  0  0
    2.4498  -51.3832  -25.2103 N   0  0  0  0  0  0  0  0  0  0  0  0
    2.5657  -51.2807  -26.5660 C   0  0  0  0  0  0  0  0  0  0  0  0
    3.2323  -50.2221  -27.0503 N   0  0  0  0  0  0  0  0  0  0  0  0
    3.7783  -49.2811  -26.2894 C   0  0  0  0  0  0  0  0  0  0  0  0
    3.6649  -49.3789  -24.9206 C   0  0  0  0  0  0  0  0  0  0  0  0
    4.1973  -48.4573  -24.0987 F   0  0  0  0  0  0  0  0  0  0  0  0
    2.8501  -50.5428  -22.9799 N   0  0  0  0  0  0  0  0  0  0  0  0
    3.5542  -49.9811  -22.4144 H   0  0  0  0  0  0  0  0  0  0  0  0
   -0.0606  -52.7357  -20.8626 C   0  0  0  0  0  0  0  0  0  0  0  0
    1.1651  -52.5002  -20.3335 C   0  0  0  0  0  0  0  0  0  0  0  0
    2.1537  -51.7696  -21.0021 C   0  0  0  0  0  0  0  0  0  0  0  0
    1.9050  -51.2662  -22.2280 C   0  0  0  0  0  0  0  0  0  0  0  0
    0.6364  -51.4971  -22.8008 C   0  0  0  0  0  0  0  0  0  0  0  0
   -0.3127  -52.2133  -22.1282 C   0  0  0  0  0  0  0  0  0  0  0  0
   -1.2357  -53.3898  -18.7769 N   0  0  0  0  0  0  0  0  0  0  0  0
   -1.0944  -53.4963  -20.1705 C   0  0  0  0  0  0  0  0  0  0  0  0
   -1.8522  -54.2416  -20.8217 O   0  0  0  0  0  0  0  0  0  0  0  0
   -0.7843  -54.0916  -18.1603 H   0  0  0  0  0  0  0  0  0  0  0  0
   -1.7811  -52.6261  -18.3394 H   0  0  0  0  0  0  0  0  0  0  0  0
    1.9590  -52.2677  -27.3622 N   0  0  0  0  0  0  0  0  0  0  0  0
    2.5978  -52.9625  -27.8504 H   0  0  0  0  0  0  0  0  0  0  0  0
    0.5833  -52.4034  -27.5591 C   0  0  0  0  0  0  0  0  0  0  0  0
   -0.0010  -52.7399  -28.7443 C   0  0  0  0  0  0  0  0  0  0  0  0
   -1.4006  -52.8377  -28.9036 C   0  0  0  0  0  0  0  0  0  0  0  0
   -2.2181  -52.5870  -27.8284 C   0  0  0  0  0  0  0  0  0  0  0  0
   -3.6005  -52.6809  -27.9761 O   0  0  0  0  0  0  0  0  0  0  0  0
   -1.6678  -52.2435  -26.6076 C   0  0  0  0  0  0  0  0  0  0  0  0
   -0.3074  -52.1575  -26.4890 C   0  0  0  0  0  0  0  0  0  0  0  0
   -4.0849  -51.8359  -28.2547 H   0  0  0  0  0  0  0  0  0  0  0  0
 16 17  1  0  0  0
 17 18  2  0  0  0
 17 10  1  0  0  0
 10 11  2  0  0  0
 11 12  1  0  0  0
 12 13  2  0  0  0
 13  8  1  0  0  0
  8  1  1  0  0  0
  1  2  2  0  0  0
  2  3  1  0  0  0
  3 21  1  0  0  0
 21 23  1  0  0  0
 23 24  2  0  0  0
 24 25  1  0  0  0
 25 26  2  0  0  0
 26 27  1  0  0  0
 26 28  1  0  0  0
 28 29  2  0  0  0
  3  4  2  0  0  0
  4  5  1  0  0  0
  5  6  2  0  0  0
  6  7  1  0  0  0
 13 14  1  0  0  0
 14 15  2  0  0  0
 15 10  1  0  0  0
  6  1  1  0  0  0
 29 23  1  0  0  0
 16 19  1  0  0  0
 16 20  1  0  0  0
  8  9  1  0  0  0
 21 22  1  0  0  0
 27 30  1  0  0  0
M  END
> <minimizedAffinity>
-8.70117

> <CNNscore>
0.4669021666

> <CNNaffinity>
6.6194548607

> <CNN_VS>
3.0906379223

> <CNNaffinity_variance>
0.1860785931

$$$$
[H]Oc1c([H])c([H])c(N([H])c2nc([H])c(F)c(N([H])c3c([H])c([H])c(C(=O)N([H])[H])c([H])c3[H])n2)c([H])c1[H]


 30 32  0  0  0  0  0  0  0  0999 V2000
   -0.1454  -52.3762  -20.7358 C   0  0  0  0  0  0  0  0  0  0  0  0
    0.4447  -52.3561  -21.9195 N   0  0  0  0  0  0  0  0  0  0  0  0
    0.1739  -53.2882  -22.8785 C   0  0  0  0  0  0  0  0  0  0  0  0
   -0.7227  -54.2398  -22.5788 N   0  0  0  0  0  0  0  0  0  0  0  0
   -1.3526  -54.3212  -21.4129 C   0  0  0  0  0  0  0  0  0  0  0  0
   -1.0837  -53.3836  -20.4410 C   0  0  0  0  0  0  0  0  0  0  0  0
   -1.6904  -53.4140  -19.2412 F   0  0  0  0  0  0  0  0  0  0  0  0
    0.1262  -51.4391  -19.7062 N   0  0  0  0  0  0  0  0  0  0  0  0
   -0.3650  -51.5925  -18.7754 H   0  0  0  0  0  0  0  0  0  0  0  0
    2.5596  -48.0098  -19.9929 C   0  0  0  0  0  0  0  0  0  0  0  0
    2.7040  -48.8912  -18.9731 C   0  0  0  0  0  0  0  0  0  0  0  0
    1.9212  -50.0445  -18.8491 C   0  0  0  0  0  0  0  0  0  0  0  0
    0.9734  -50.3166  -19.7687 C   0  0  0  0  0  0  0  0  0  0  0  0
    0.8035  -49.4148  -20.8405 C   0  0  0  0  0  0  0  0  0  0  0  0
    1.5803  -48.2955  -20.9403 C   0  0  0  0  0  0  0  0  0  0  0  0
    3.9560  -46.2186  -18.9927 N   0  0  0  0  0  0  0  0  0  0  0  0
    3.3724  -46.8065  -20.1271 C   0  0  0  0  0  0  0  0  0  0  0  0
    3.5466  -46.3022  -21.2537 O   0  0  0  0  0  0  0  0  0  0  0  0
    3.4756  -45.4307  -18.5185 H   0  0  0  0  0  0  0  0  0  0  0  0
    4.8596  -46.5487  -18.6094 H   0  0  0  0  0  0  0  0  0  0  0  0
    0.8678  -53.2086  -24.0985 N   0  0  0  0  0  0  0  0  0  0  0  0
    1.9283  -53.2661  -24.0621 H   0  0  0  0  0  0  0  0  0  0  0  0
    0.2697  -53.0601  -25.3515 C   0  0  0  0  0  0  0  0  0  0  0  0
   -0.8499  -52.3204  -25.5935 C   0  0  0  0  0  0  0  0  0  0  0  0
   -1.4365  -52.2222  -26.8743 C   0  0  0  0  0  0  0  0  0  0  0  0
   -0.8654  -52.8934  -27.9279 C   0  0  0  0  0  0  0  0  0  0  0  0
   -1.4372  -52.8026  -29.1952 O   0  0  0  0  0  0  0  0  0  0  0  0
    0.2713  -53.6544  -27.7274 C   0  0  0  0  0  0  0  0  0  0  0  0
    0.8129  -53.7278  -26.4731 C   0  0  0  0  0  0  0  0  0  0  0  0
   -2.1388  -53.4957  -29.4266 H   0  0  0  0  0  0  0  0  0  0  0  0
 16 17  1  0  0  0
 17 18  2  0  0  0
 17 10  1  0  0  0
 10 11  2  0  0  0
 11 12  1  0  0  0
 12 13  2  0  0  0
 13  8  1  0  0  0
  8  1  1  0  0  0
  1  2  2  0  0  0
  2  3  1  0  0  0
  3 21  1  0  0  0
 21 23  1  0  0  0
 23 24  2  0  0  0
 24 25  1  0  0  0
 25 26  2  0  0  0
 26 27  1  0  0  0
 26 28  1  0  0  0
 28 29  2  0  0  0
  3  4  2  0  0  0
  4  5  1  0  0  0
  5  6  2  0  0  0
  6  7  1  0  0  0
 13 14  1  0  0  0
 14 15  2  0  0  0
 15 10  1  0  0  0
  6  1  1  0  0  0
 29 23  1  0  0  0
 16 19  1  0  0  0
 16 20  1  0  0  0
  8  9  1  0  0  0
 21 22  1  0  0  0
 27 30  1  0  0  0
M  END
> <minimizedAffinity>
-7.18383

> <CNNscore>
0.3921371996

> <CNNaffinity>
6.2592248917

> <CNN_VS>
2.4544749260

> <CNNaffinity_variance>
0.1238929480

$$$$
[H]Oc1c([H])c([H])c(N([H])c2nc([H])c(F)c(N([H])c3c([H])c([H])c(C(=O)N([H])[H])c([H])c3[H])n2)c([H])c1[H]


 30 32  0  0  0  0  0  0  0  0999 V2000
    1.2234  -51.7319  -22.2348 C   0  0  0  0  0  0  0  0  0  0  0  0
    0.8938  -52.5082  -23.2538 N   0  0  0  0  0  0  0  0  0  0  0  0
   -0.2486  -53.2545  -23.2546 C   0  0  0  0  0  0  0  0  0  0  0  0
   -1.0386  -53.1751  -22.1734 N   0  0  0  0  0  0  0  0  0  0  0  0
   -0.7706  -52.4181  -21.1161 C   0  0  0  0  0  0  0  0  0  0  0  0
    0.3805  -51.6626  -21.1093 C   0  0  0  0  0  0  0  0  0  0  0  0
    0.7049  -50.8765  -20.0675 F   0  0  0  0  0  0  0  0  0  0  0  0
    2.4122  -50.9596  -22.1876 N   0  0  0  0  0  0  0  0  0  0  0  0
    3.2272  -51.3655  -21.6378 H   0  0  0  0  0  0  0  0  0  0  0  0
    3.1163  -47.1414  -23.8275 C   0  0  0  0  0  0  0  0  0  0  0  0
    3.3277  -48.2676  -24.5518 C   0  0  0  0  0  0  0  0  0  0  0  0
    3.0972  -49.5514  -24.0449 C   0  0  0  0  0  0  0  0  0  0  0  0
    2.6457  -49.7059  -22.7838 C   0  0  0  0  0  0  0  0  0  0  0  0
    2.4173  -48.5489  -22.0091 C   0  0  0  0  0  0  0  0  0  0  0  0
    2.6495  -47.3061  -22.5263 C   0  0  0  0  0  0  0  0  0  0  0  0
    3.8961  -44.8055  -23.5206 N   0  0  0  0  0  0  0  0  0  0  0  0
    3.3548  -45.8012  -24.3505 C   0  0  0  0  0  0  0  0  0  0  0  0
    3.0760  -45.5437  -25.5378 O   0  0  0  0  0  0  0  0  0  0  0  0
    3.2635  -44.1373  -23.0412 H   0  0  0  0  0  0  0  0  0  0  0  0
    4.9165  -44.7148  -23.3693 H   0  0  0  0  0  0  0  0  0  0  0  0
   -0.5073  -54.0739  -24.3671 N   0  0  0  0  0  0  0  0  0  0  0  0
   -0.8276  -55.0692  -24.1771 H   0  0  0  0  0  0  0  0  0  0  0  0
   -0.3754  -53.6792  -25.7000 C   0  0  0  0  0  0  0  0  0  0  0  0
   -0.9995  -52.6013  -26.2549 C   0  0  0  0  0  0  0  0  0  0  0  0
   -0.8584  -52.2565  -27.6170 C   0  0  0  0  0  0  0  0  0  0  0  0
   -0.0622  -53.0296  -28.4265 C   0  0  0  0  0  0  0  0  0  0  0  0
    0.0829  -52.6972  -29.7719 O   0  0  0  0  0  0  0  0  0  0  0  0
    0.5901  -54.1312  -27.9050 C   0  0  0  0  0  0  0  0  0  0  0  0
    0.4305  -54.4366  -26.5808 C   0  0  0  0  0  0  0  0  0  0  0  0
   -0.5831  -53.1087  -30.4148 H   0  0  0  0  0  0  0  0  0  0  0  0
 16 17  1  0  0  0
 17 18  2  0  0  0
 17 10  1  0  0  0
 10 11  2  0  0  0
 11 12  1  0  0  0
 12 13  2  0  0  0
 13  8  1  0  0  0
  8  1  1  0  0  0
  1  2  2  0  0  0
  2  3  1  0  0  0
  3 21  1  0  0  0
 21 23  1  0  0  0
 23 24  2  0  0  0
 24 25  1  0  0  0
 25 26  2  0  0  0
 26 27  1  0  0  0
 26 28  1  0  0  0
 28 29  2  0  0  0
  3  4  2  0  0  0
  4  5  1  0  0  0
  5  6  2  0  0  0
  6  7  1  0  0  0
 13 14  1  0  0  0
 14 15  2  0  0  0
 15 10  1  0  0  0
  6  1  1  0  0  0
 29 23  1  0  0  0
 16 19  1  0  0  0
 16 20  1  0  0  0
  8  9  1  0  0  0
 21 22  1  0  0  0
 27 30  1  0  0  0
M  END
> <minimizedAffinity>
-6.98360

> <CNNscore>
0.3636626005

> <CNNaffinity>
6.4479241371

> <CNN_VS>
2.3448688984

> <CNNaffinity_variance>
0.3169927597

$$$$
[H]Oc1c([H])c([H])c(N([H])c2nc([H])c(F)c(N([H])c3c([H])c([H])c(C(=O)N([H])[H])c([H])c3[H])n2)c([H])c1[H]


 30 32  0  0  0  0  0  0  0  0999 V2000
   -0.2386  -52.4896  -22.0263 C   0  0  0  0  0  0  0  0  0  0  0  0
   -0.1918  -52.8428  -23.3001 N   0  0  0  0  0  0  0  0  0  0  0  0
   -0.6948  -54.0326  -23.7397 C   0  0  0  0  0  0  0  0  0  0  0  0
   -1.2464  -54.8451  -22.8258 N   0  0  0  0  0  0  0  0  0  0  0  0
   -1.3276  -54.5557  -21.5326 C   0  0  0  0  0  0  0  0  0  0  0  0
   -0.8220  -53.3566  -21.0828 C   0  0  0  0  0  0  0  0  0  0  0  0
   -0.8758  -53.0081  -19.7851 F   0  0  0  0  0  0  0  0  0  0  0  0
    0.2931  -51.2726  -21.5280 N   0  0  0  0  0  0  0  0  0  0  0  0
   -0.4063  -50.5410  -21.2013 H   0  0  0  0  0  0  0  0  0  0  0  0
    4.3742  -50.3132  -21.0948 C   0  0  0  0  0  0  0  0  0  0  0  0
    3.6401  -49.8161  -22.1203 C   0  0  0  0  0  0  0  0  0  0  0  0
    2.2817  -50.1050  -22.2923 C   0  0  0  0  0  0  0  0  0  0  0  0
    1.6488  -50.9105  -21.4155 C   0  0  0  0  0  0  0  0  0  0  0  0
    2.3908  -51.4405  -20.3387 C   0  0  0  0  0  0  0  0  0  0  0  0
    3.7162  -51.1437  -20.1919 C   0  0  0  0  0  0  0  0  0  0  0  0
    6.1860  -48.9512  -20.0842 N   0  0  0  0  0  0  0  0  0  0  0  0
    5.7899  -50.0157  -20.9109 C   0  0  0  0  0  0  0  0  0  0  0  0
    6.6468  -50.7106  -21.4909 O   0  0  0  0  0  0  0  0  0  0  0  0
    6.3949  -48.0257  -20.5041 H   0  0  0  0  0  0  0  0  0  0  0  0
    6.2774  -49.0602  -19.0585 H   0  0  0  0  0  0  0  0  0  0  0  0
   -0.5774  -54.3404  -25.1063 N   0  0  0  0  0  0  0  0  0  0  0  0
   -1.2545  -55.0552  -25.5062 H   0  0  0  0  0  0  0  0  0  0  0  0
    0.3598  -53.7786  -25.9758 C   0  0  0  0  0  0  0  0  0  0  0  0
    0.1710  -53.6101  -27.3156 C   0  0  0  0  0  0  0  0  0  0  0  0
    1.1600  -53.0624  -28.1618 C   0  0  0  0  0  0  0  0  0  0  0  0
    2.3653  -52.6790  -27.6258 C   0  0  0  0  0  0  0  0  0  0  0  0
    3.3473  -52.1377  -28.4530 O   0  0  0  0  0  0  0  0  0  0  0  0
    2.5987  -52.8311  -26.2718 C   0  0  0  0  0  0  0  0  0  0  0  0
    1.6183  -53.3658  -25.4812 C   0  0  0  0  0  0  0  0  0  0  0  0
    3.9976  -52.7915  -28.8723 H   0  0  0  0  0  0  0  0  0  0  0  0
 16 17  1  0  0  0
 17 18  2  0  0  0
 17 10  1  0  0  0
 10 11  2  0  0  0
 11 12  1  0  0  0
 12 13  2  0  0  0
 13  8  1  0  0  0
  8  1  1  0  0  0
  1  2  2  0  0  0
  2  3  1  0  0  0
  3 21  1  0  0  0
 21 23  1  0  0  0
 23 24  2  0  0  0
 24 25  1  0  0  0
 25 26  2  0  0  0
 26 27  1  0  0  0
 26 28  1  0  0  0
 28 29  2  0  0  0
  3  4  2  0  0  0
  4  5  1  0  0  0
  5  6  2  0  0  0
  6  7  1  0  0  0
 13 14  1  0  0  0
 14 15  2  0  0  0
 15 10  1  0  0  0
  6  1  1  0  0  0
 29 23  1  0  0  0
 16 19  1  0  0  0
 16 20  1  0  0  0
  8  9  1  0  0  0
 21 22  1  0  0  0
 27 30  1  0  0  0
M  END
> <minimizedAffinity>
-7.58550

> <CNNscore>
0.3572054803

> <CNNaffinity>
6.3717632294

> <CNN_VS>
2.2760286331

> <CNNaffinity_variance>
0.0815398544

$$$$
[H]Oc1c([H])c([H])c(N([H])c2nc([H])c(F)c(N([H])c3c([H])c([H])c(C(=O)N([H])[H])c([H])c3[H])n2)c([H])c1[H]


 30 32  0  0  0  0  0  0  0  0999 V2000
    0.4228  -53.4715  -26.1670 C   0  0  0  0  0  0  0  0  0  0  0  0
    1.6750  -53.2321  -25.8144 N   0  0  0  0  0  0  0  0  0  0  0  0
    2.6158  -52.8283  -26.7166 C   0  0  0  0  0  0  0  0  0  0  0  0
    2.2251  -52.6797  -27.9913 N   0  0  0  0  0  0  0  0  0  0  0  0
    0.9868  -52.9020  -28.4156 C   0  0  0  0  0  0  0  0  0  0  0  0
    0.0329  -53.3096  -27.5101 C   0  0  0  0  0  0  0  0  0  0  0  0
   -1.2374  -53.5495  -27.8802 F   0  0  0  0  0  0  0  0  0  0  0  0
   -0.5772  -53.9139  -25.2634 N   0  0  0  0  0  0  0  0  0  0  0  0
   -1.4126  -54.4215  -25.6825 H   0  0  0  0  0  0  0  0  0  0  0  0
   -0.6624  -53.2901  -21.0960 C   0  0  0  0  0  0  0  0  0  0  0  0
   -0.8928  -54.5153  -21.6285 C   0  0  0  0  0  0  0  0  0  0  0  0
   -0.8645  -54.7629  -23.0054 C   0  0  0  0  0  0  0  0  0  0  0  0
   -0.5998  -53.7579  -23.8645 C   0  0  0  0  0  0  0  0  0  0  0  0
   -0.3561  -52.4728  -23.3353 C   0  0  0  0  0  0  0  0  0  0  0  0
   -0.3890  -52.2559  -21.9870 C   0  0  0  0  0  0  0  0  0  0  0  0
   -1.7131  -53.5671  -18.8648 N   0  0  0  0  0  0  0  0  0  0  0  0
   -0.6907  -53.0264  -19.6621 C   0  0  0  0  0  0  0  0  0  0  0  0
    0.1969  -52.3187  -19.1474 O   0  0  0  0  0  0  0  0  0  0  0  0
   -2.5483  -52.9931  -18.6424 H   0  0  0  0  0  0  0  0  0  0  0  0
   -1.6609  -54.5300  -18.4874 H   0  0  0  0  0  0  0  0  0  0  0  0
    3.9298  -52.6236  -26.2611 N   0  0  0  0  0  0  0  0  0  0  0  0
    4.7210  -52.9712  -26.8794 H   0  0  0  0  0  0  0  0  0  0  0  0
    4.2726  -51.9992  -25.0601 C   0  0  0  0  0  0  0  0  0  0  0  0
    4.7824  -52.6410  -23.9704 C   0  0  0  0  0  0  0  0  0  0  0  0
    5.0880  -51.9715  -22.7652 C   0  0  0  0  0  0  0  0  0  0  0  0
    4.8686  -50.6185  -22.6742 C   0  0  0  0  0  0  0  0  0  0  0  0
    5.1671  -49.9494  -21.4890 O   0  0  0  0  0  0  0  0  0  0  0  0
    4.3539  -49.9280  -23.7556 C   0  0  0  0  0  0  0  0  0  0  0  0
    4.0685  -50.6085  -24.9078 C   0  0  0  0  0  0  0  0  0  0  0  0
    4.4237  -49.8882  -20.8035 H   0  0  0  0  0  0  0  0  0  0  0  0
 16 17  1  0  0  0
 17 18  2  0  0  0
 17 10  1  0  0  0
 10 11  2  0  0  0
 11 12  1  0  0  0
 12 13  2  0  0  0
 13  8  1  0  0  0
  8  1  1  0  0  0
  1  2  2  0  0  0
  2  3  1  0  0  0
  3 21  1  0  0  0
 21 23  1  0  0  0
 23 24  2  0  0  0
 24 25  1  0  0  0
 25 26  2  0  0  0
 26 27  1  0  0  0
 26 28  1  0  0  0
 28 29  2  0  0  0
  3  4  2  0  0  0
  4  5  1  0  0  0
  5  6  2  0  0  0
  6  7  1  0  0  0
 13 14  1  0  0  0
 14 15  2  0  0  0
 15 10  1  0  0  0
  6  1  1  0  0  0
 29 23  1  0  0  0
 16 19  1  0  0  0
 16 20  1  0  0  0
  8  9  1  0  0  0
 21 22  1  0  0  0
 27 30  1  0  0  0
M  END
> <minimizedAffinity>
-7.98623

> <CNNscore>
0.3571875393

> <CNNaffinity>
6.3762130737

> <CNN_VS>
2.2775039673

> <CNNaffinity_variance>
0.0560565591

$$$$
[H]OC(=O)[C@@]1([H])N(C(=O)[C@@]([H])(N([H])[C@]([H])(C(=O)O[H])C([H])([H])C([H])([H])c2c([H])c([H])c([H])c([H])c2[H])C([H])([H])[H])C([H])([H])c2c([H])c([H])c([H])c([H])c2C1([H])[H]


 33 35  0  0  0  0  0  0  0  0999 V2000
   -1.2681  -51.5313  -21.6626 C   0  0  0  0  0  0  0  0  0  0  0  0
    0.1519  -51.8612  -21.1761 C   0  0  0  0  0  0  0  0  0  0  0  0
    0.0282  -52.2602  -19.7713 C   0  0  0  0  0  0  0  0  0  0  0  0
   -0.5738  -53.3685  -19.5511 O   0  0  0  0  0  0  0  0  0  0  0  0
    0.4993  -51.5566  -18.6426 N   0  0  0  0  0  0  0  0  0  0  0  0
    0.2169  -52.1367  -17.3089 C   0  0  0  0  0  0  0  0  0  0  0  0
   -0.5943  -51.1043  -16.5632 C   0  0  0  0  0  0  0  0  0  0  0  0
   -1.7560  -51.3866  -15.8962 C   0  0  0  0  0  0  0  0  0  0  0  0
   -2.4565  -50.3488  -15.2603 C   0  0  0  0  0  0  0  0  0  0  0  0
   -1.9418  -49.0720  -15.3331 C   0  0  0  0  0  0  0  0  0  0  0  0
   -0.7498  -48.8158  -16.0233 C   0  0  0  0  0  0  0  0  0  0  0  0
   -0.0560  -49.8266  -16.6489 C   0  0  0  0  0  0  0  0  0  0  0  0
    1.2108  -49.6311  -17.3515 C   0  0  0  0  0  0  0  0  0  0  0  0
    1.2381  -50.3262  -18.6750 C   0  0  0  0  0  0  0  0  0  0  0  0
    2.6403  -50.5453  -19.1351 C   0  0  0  0  0  0  0  0  0  0  0  0
    3.2235  -51.5998  -18.8367 O   0  0  0  0  0  0  0  0  0  0  0  0
    3.2589  -49.5817  -19.8778 O   0  0  0  0  0  0  0  0  0  0  0  0
    2.8761  -49.3821  -20.8004 H   0  0  0  0  0  0  0  0  0  0  0  0
    0.5790  -52.9662  -22.0274 N   0  0  0  0  0  0  0  0  0  0  0  0
    1.2077  -53.5638  -21.4323 H   0  0  0  0  0  0  0  0  0  0  0  0
    1.3923  -52.4394  -23.0987 C   0  0  0  0  0  0  0  0  0  0  0  0
    2.3079  -51.3677  -22.6082 C   0  0  0  0  0  0  0  0  0  0  0  0
    2.0425  -50.1478  -22.7480 O   0  0  0  0  0  0  0  0  0  0  0  0
    3.5030  -51.6697  -21.9701 O   0  0  0  0  0  0  0  0  0  0  0  0
    4.1378  -52.3934  -22.2743 H   0  0  0  0  0  0  0  0  0  0  0  0
    0.5582  -51.9607  -24.2597 C   0  0  0  0  0  0  0  0  0  0  0  0
   -0.2416  -53.0807  -24.8822 C   0  0  0  0  0  0  0  0  0  0  0  0
   -0.2343  -53.0056  -26.3644 C   0  0  0  0  0  0  0  0  0  0  0  0
   -1.3450  -52.5805  -27.0825 C   0  0  0  0  0  0  0  0  0  0  0  0
   -1.3718  -52.5022  -28.4573 C   0  0  0  0  0  0  0  0  0  0  0  0
   -0.2498  -52.8589  -29.1796 C   0  0  0  0  0  0  0  0  0  0  0  0
    0.8812  -53.2896  -28.4896 C   0  0  0  0  0  0  0  0  0  0  0  0
    0.8725  -53.3555  -27.1157 C   0  0  0  0  0  0  0  0  0  0  0  0
  1  2  1  0  0  0
  2 19  1  0  0  0
 19 21  1  0  0  0
 21 26  1  0  0  0
 26 27  1  0  0  0
 27 28  1  0  0  0
 28 29  2  0  0  0
 29 30  1  0  0  0
 30 31  2  0  0  0
 31 32  1  0  0  0
 32 33  2  0  0  0
 21 22  1  0  0  0
 22 23  2  0  0  0
 22 24  1  0  0  0
  2  3  1  0  0  0
  3  4  2  0  0  0
  3  5  1  0  0  0
  5  6  1  0  0  0
  6  7  1  0  0  0
  7  8  2  0  0  0
  8  9  1  0  0  0
  9 10  2  0  0  0
 10 11  1  0  0  0
 11 12  2  0  0  0
 12 13  1  0  0  0
 13 14  1  0  0  0
 14 15  1  0  0  0
 15 16  2  0  0  0
 15 17  1  0  0  0
 33 28  1  0  0  0
 14  5  1  0  0  0
 12  7  1  0  0  0
 19 20  1  0  0  0
 24 25  1  0  0  0
 17 18  1  0  0  0
M  END
> <minimizedAffinity>
-7.30678

> <CNNscore>
0.3016969860

> <CNNaffinity>
5.5119891167

> <CNN_VS>
1.6629505157

> <CNNaffinity_variance>
0.1999567151

$$$$
[H]OC(=O)[C@@]1([H])N(C(=O)[C@@]([H])(N([H])[C@]([H])(C(=O)O[H])C([H])([H])C([H])([H])c2c([H])c([H])c([H])c([H])c2[H])C([H])([H])[H])C([H])([H])c2c([H])c([H])c([H])c([H])c2C1([H])[H]


 33 35  0  0  0  0  0  0  0  0999 V2000
    4.4520  -51.7136  -22.4203 C   0  0  0  0  0  0  0  0  0  0  0  0
    3.0427  -51.5038  -22.9965 C   0  0  0  0  0  0  0  0  0  0  0  0
    2.4277  -50.4302  -22.2110 C   0  0  0  0  0  0  0  0  0  0  0  0
    2.7099  -49.2348  -22.5722 O   0  0  0  0  0  0  0  0  0  0  0  0
    1.5628  -50.5735  -21.1053 N   0  0  0  0  0  0  0  0  0  0  0  0
    1.0976  -49.3359  -20.4368 C   0  0  0  0  0  0  0  0  0  0  0  0
    1.5708  -49.4263  -19.0057 C   0  0  0  0  0  0  0  0  0  0  0  0
    2.2258  -48.4150  -18.3560 C   0  0  0  0  0  0  0  0  0  0  0  0
    2.6561  -48.6091  -17.0333 C   0  0  0  0  0  0  0  0  0  0  0  0
    2.3997  -49.8237  -16.4339 C   0  0  0  0  0  0  0  0  0  0  0  0
    1.7262  -50.8388  -17.1259 C   0  0  0  0  0  0  0  0  0  0  0  0
    1.3001  -50.6575  -18.4220 C   0  0  0  0  0  0  0  0  0  0  0  0
    0.5603  -51.6618  -19.1841 C   0  0  0  0  0  0  0  0  0  0  0  0
    1.0866  -51.8194  -20.5747 C   0  0  0  0  0  0  0  0  0  0  0  0
    0.0621  -52.4352  -21.4675 C   0  0  0  0  0  0  0  0  0  0  0  0
   -0.9796  -51.8107  -21.7239 O   0  0  0  0  0  0  0  0  0  0  0  0
    0.2881  -53.6763  -21.9886 O   0  0  0  0  0  0  0  0  0  0  0  0
    1.0670  -53.7785  -22.6371 H   0  0  0  0  0  0  0  0  0  0  0  0
    3.2727  -51.1105  -24.3823 N   0  0  0  0  0  0  0  0  0  0  0  0
    2.9372  -50.1167  -24.4607 H   0  0  0  0  0  0  0  0  0  0  0  0
    2.4250  -51.9080  -25.2379 C   0  0  0  0  0  0  0  0  0  0  0  0
    3.0120  -52.0508  -26.6026 C   0  0  0  0  0  0  0  0  0  0  0  0
    3.0023  -51.1098  -27.4349 O   0  0  0  0  0  0  0  0  0  0  0  0
    3.6005  -53.2368  -27.0194 O   0  0  0  0  0  0  0  0  0  0  0  0
    3.2152  -54.1521  -26.8378 H   0  0  0  0  0  0  0  0  0  0  0  0
    1.0172  -51.3720  -25.2986 C   0  0  0  0  0  0  0  0  0  0  0  0
   -0.0106  -52.4789  -25.3007 C   0  0  0  0  0  0  0  0  0  0  0  0
   -0.7598  -52.5329  -26.5806 C   0  0  0  0  0  0  0  0  0  0  0  0
   -2.1142  -52.2317  -26.6508 C   0  0  0  0  0  0  0  0  0  0  0  0
   -2.8387  -52.2750  -27.8214 C   0  0  0  0  0  0  0  0  0  0  0  0
   -2.2083  -52.6332  -28.9970 C   0  0  0  0  0  0  0  0  0  0  0  0
   -0.8503  -52.9414  -28.9610 C   0  0  0  0  0  0  0  0  0  0  0  0
   -0.1578  -52.8877  -27.7738 C   0  0  0  0  0  0  0  0  0  0  0  0
  1  2  1  0  0  0
  2 19  1  0  0  0
 19 21  1  0  0  0
 21 26  1  0  0  0
 26 27  1  0  0  0
 27 28  1  0  0  0
 28 29  2  0  0  0
 29 30  1  0  0  0
 30 31  2  0  0  0
 31 32  1  0  0  0
 32 33  2  0  0  0
 21 22  1  0  0  0
 22 23  2  0  0  0
 22 24  1  0  0  0
  2  3  1  0  0  0
  3  4  2  0  0  0
  3  5  1  0  0  0
  5  6  1  0  0  0
  6  7  1  0  0  0
  7  8  2  0  0  0
  8  9  1  0  0  0
  9 10  2  0  0  0
 10 11  1  0  0  0
 11 12  2  0  0  0
 12 13  1  0  0  0
 13 14  1  0  0  0
 14 15  1  0  0  0
 15 16  2  0  0  0
 15 17  1  0  0  0
 33 28  1  0  0  0
 14  5  1  0  0  0
 12  7  1  0  0  0
 19 20  1  0  0  0
 24 25  1  0  0  0
 17 18  1  0  0  0
M  END
> <minimizedAffinity>
-7.58237

> <CNNscore>
0.2924689651

> <CNNaffinity>
5.6332602501

> <CNN_VS>
1.6475538015

> <CNNaffinity_variance>
0.2147025317

$$$$
[H]OC(=O)[C@@]1([H])N(C(=O)[C@@]([H])(N([H])[C@]([H])(C(=O)O[H])C([H])([H])C([H])([H])c2c([H])c([H])c([H])c([H])c2[H])C([H])([H])[H])C([H])([H])c2c([H])c([H])c([H])c([H])c2C1([H])[H]


 33 35  0  0  0  0  0  0  0  0999 V2000
    4.8130  -52.7046  -23.2431 C   0  0  0  0  0  0  0  0  0  0  0  0
    3.5640  -52.4456  -24.1004 C   0  0  0  0  0  0  0  0  0  0  0  0
    2.7112  -51.5368  -23.3293 C   0  0  0  0  0  0  0  0  0  0  0  0
    3.2499  -50.4358  -22.9597 O   0  0  0  0  0  0  0  0  0  0  0  0
    1.3673  -51.7455  -22.9532 N   0  0  0  0  0  0  0  0  0  0  0  0
    0.7176  -50.6988  -22.1303 C   0  0  0  0  0  0  0  0  0  0  0  0
    0.2993  -51.3720  -20.8451 C   0  0  0  0  0  0  0  0  0  0  0  0
    0.5638  -50.8665  -19.6007 C   0  0  0  0  0  0  0  0  0  0  0  0
    0.1619  -51.5860  -18.4636 C   0  0  0  0  0  0  0  0  0  0  0  0
   -0.4906  -52.7865  -18.6464 C   0  0  0  0  0  0  0  0  0  0  0  0
   -0.7471  -53.2766  -19.9335 C   0  0  0  0  0  0  0  0  0  0  0  0
   -0.3575  -52.5782  -21.0538 C   0  0  0  0  0  0  0  0  0  0  0  0
   -0.6286  -53.0162  -22.4218 C   0  0  0  0  0  0  0  0  0  0  0  0
    0.5694  -52.8853  -23.3068 C   0  0  0  0  0  0  0  0  0  0  0  0
    0.1707  -52.8459  -24.7440 C   0  0  0  0  0  0  0  0  0  0  0  0
   -0.2882  -51.7963  -25.2222 O   0  0  0  0  0  0  0  0  0  0  0  0
    0.3180  -53.9660  -25.5100 O   0  0  0  0  0  0  0  0  0  0  0  0
    1.2658  -54.3015  -25.6735 H   0  0  0  0  0  0  0  0  0  0  0  0
    4.0803  -51.8208  -25.3134 N   0  0  0  0  0  0  0  0  0  0  0  0
    4.4680  -50.8891  -25.0165 H   0  0  0  0  0  0  0  0  0  0  0  0
    2.9747  -51.5507  -26.2031 C   0  0  0  0  0  0  0  0  0  0  0  0
    2.9620  -52.4984  -27.3559 C   0  0  0  0  0  0  0  0  0  0  0  0
    2.5020  -53.6633  -27.2569 O   0  0  0  0  0  0  0  0  0  0  0  0
    3.4603  -52.1357  -28.5995 O   0  0  0  0  0  0  0  0  0  0  0  0
    4.3174  -51.6197  -28.7353 H   0  0  0  0  0  0  0  0  0  0  0  0
    2.9608  -50.1173  -26.6698 C   0  0  0  0  0  0  0  0  0  0  0  0
    4.0625  -49.3035  -26.0328 C   0  0  0  0  0  0  0  0  0  0  0  0
    3.5974  -47.9454  -25.6564 C   0  0  0  0  0  0  0  0  0  0  0  0
    2.9814  -47.1013  -26.5718 C   0  0  0  0  0  0  0  0  0  0  0  0
    2.5413  -45.8351  -26.2554 C   0  0  0  0  0  0  0  0  0  0  0  0
    2.7099  -45.3593  -24.9697 C   0  0  0  0  0  0  0  0  0  0  0  0
    3.3242  -46.1810  -24.0274 C   0  0  0  0  0  0  0  0  0  0  0  0
    3.7516  -47.4404  -24.3784 C   0  0  0  0  0  0  0  0  0  0  0  0
  1  2  1  0  0  0
  2 19  1  0  0  0
 19 21  1  0  0  0
 21 26  1  0  0  0
 26 27  1  0  0  0
 27 28  1  0  0  0
 28 29  2  0  0  0
 29 30  1  0  0  0
 30 31  2  0  0  0
 31 32  1  0  0  0
 32 33  2  0  0  0
 21 22  1  0  0  0
 22 23  2  0  0  0
 22 24  1  0  0  0
  2  3  1  0  0  0
  3  4  2  0  0  0
  3  5  1  0  0  0
  5  6  1  0  0  0
  6  7  1  0  0  0
  7  8  2  0  0  0
  8  9  1  0  0  0
  9 10  2  0  0  0
 10 11  1  0  0  0
 11 12  2  0  0  0
 12 13  1  0  0  0
 13 14  1  0  0  0
 14 15  1  0  0  0
 15 16  2  0  0  0
 15 17  1  0  0  0
 33 28  1  0  0  0
 14  5  1  0  0  0
 12  7  1  0  0  0
 19 20  1  0  0  0
 24 25  1  0  0  0
 17 18  1  0  0  0
M  END
> <minimizedAffinity>
-7.71046

> <CNNscore>
0.2053121030

> <CNNaffinity>
5.7471761703

> <CNN_VS>
1.1799647808

> <CNNaffinity_variance>
0.1386233121

$$$$
[H]OC(=O)[C@@]1([H])N(C(=O)[C@@]([H])(N([H])[C@]([H])(C(=O)O[H])C([H])([H])C([H])([H])c2c([H])c([H])c([H])c([H])c2[H])C([H])([H])[H])C([H])([H])c2c([H])c([H])c([H])c([H])c2C1([H])[H]


 33 35  0  0  0  0  0  0  0  0999 V2000
    0.9632  -50.1114  -18.9685 C   0  0  0  0  0  0  0  0  0  0  0  0
    0.3446  -50.4900  -20.3235 C   0  0  0  0  0  0  0  0  0  0  0  0
    1.1477  -49.8190  -21.3496 C   0  0  0  0  0  0  0  0  0  0  0  0
    0.7143  -48.6833  -21.7512 O   0  0  0  0  0  0  0  0  0  0  0  0
    2.3407  -50.2894  -21.9382 N   0  0  0  0  0  0  0  0  0  0  0  0
    2.9571  -49.4535  -22.9947 C   0  0  0  0  0  0  0  0  0  0  0  0
    3.0005  -50.3094  -24.2379 C   0  0  0  0  0  0  0  0  0  0  0  0
    2.5660  -49.8890  -25.4661 C   0  0  0  0  0  0  0  0  0  0  0  0
    2.6168  -50.7731  -26.5561 C   0  0  0  0  0  0  0  0  0  0  0  0
    3.1074  -52.0440  -26.3448 C   0  0  0  0  0  0  0  0  0  0  0  0
    3.5450  -52.4437  -25.0753 C   0  0  0  0  0  0  0  0  0  0  0  0
    3.4997  -51.5840  -24.0014 C   0  0  0  0  0  0  0  0  0  0  0  0
    3.9756  -51.9274  -22.6626 C   0  0  0  0  0  0  0  0  0  0  0  0
    3.0158  -51.5090  -21.5952 C   0  0  0  0  0  0  0  0  0  0  0  0
    3.7001  -51.3993  -20.2740 C   0  0  0  0  0  0  0  0  0  0  0  0
    3.3126  -52.0996  -19.3252 O   0  0  0  0  0  0  0  0  0  0  0  0
    4.7425  -50.5298  -20.1307 O   0  0  0  0  0  0  0  0  0  0  0  0
    5.5863  -50.7155  -20.6704 H   0  0  0  0  0  0  0  0  0  0  0  0
    0.4713  -51.9420  -20.3866 N   0  0  0  0  0  0  0  0  0  0  0  0
    1.3757  -52.1320  -20.8888 H   0  0  0  0  0  0  0  0  0  0  0  0
   -0.5880  -52.4646  -21.2182 C   0  0  0  0  0  0  0  0  0  0  0  0
   -1.3435  -53.5453  -20.5191 C   0  0  0  0  0  0  0  0  0  0  0  0
   -1.9362  -54.4582  -21.1465 O   0  0  0  0  0  0  0  0  0  0  0  0
   -1.4274  -53.5937  -19.1345 O   0  0  0  0  0  0  0  0  0  0  0  0
   -1.5877  -52.7859  -18.5504 H   0  0  0  0  0  0  0  0  0  0  0  0
   -0.0784  -52.9291  -22.5588 C   0  0  0  0  0  0  0  0  0  0  0  0
   -0.4379  -51.9665  -23.6659 C   0  0  0  0  0  0  0  0  0  0  0  0
   -0.3425  -52.6035  -25.0028 C   0  0  0  0  0  0  0  0  0  0  0  0
   -0.6871  -51.9245  -26.1649 C   0  0  0  0  0  0  0  0  0  0  0  0
   -0.6127  -52.4875  -27.4197 C   0  0  0  0  0  0  0  0  0  0  0  0
   -0.1765  -53.7911  -27.5541 C   0  0  0  0  0  0  0  0  0  0  0  0
    0.1768  -54.5000  -26.4082 C   0  0  0  0  0  0  0  0  0  0  0  0
    0.0902  -53.9060  -25.1706 C   0  0  0  0  0  0  0  0  0  0  0  0
  1  2  1  0  0  0
  2 19  1  0  0  0
 19 21  1  0  0  0
 21 26  1  0  0  0
 26 27  1  0  0  0
 27 28  1  0  0  0
 28 29  2  0  0  0
 29 30  1  0  0  0
 30 31  2  0  0  0
 31 32  1  0  0  0
 32 33  2  0  0  0
 21 22  1  0  0  0
 22 23  2  0  0  0
 22 24  1  0  0  0
  2  3  1  0  0  0
  3  4  2  0  0  0
  3  5  1  0  0  0
  5  6  1  0  0  0
  6  7  1  0  0  0
  7  8  2  0  0  0
  8  9  1  0  0  0
  9 10  2  0  0  0
 10 11  1  0  0  0
 11 12  2  0  0  0
 12 13  1  0  0  0
 13 14  1  0  0  0
 14 15  1  0  0  0
 15 16  2  0  0  0
 15 17  1  0  0  0
 33 28  1  0  0  0
 14  5  1  0  0  0
 12  7  1  0  0  0
 19 20  1  0  0  0
 24 25  1  0  0  0
 17 18  1  0  0  0
M  END
> <minimizedAffinity>
-7.91184

> <CNNscore>
0.1970365793

> <CNNaffinity>
5.6417818069

> <CNN_VS>
1.1116373539

> <CNNaffinity_variance>
0.6906203032

$$$$
[H]OC(=O)[C@@]1([H])N(C(=O)[C@@]([H])(N([H])[C@]([H])(C(=O)O[H])C([H])([H])C([H])([H])c2c([H])c([H])c([H])c([H])c2[H])C([H])([H])[H])C([H])([H])c2c([H])c([H])c([H])c([H])c2C1([H])[H]


 33 35  0  0  0  0  0  0  0  0999 V2000
    2.7376  -50.4573  -24.6467 C   0  0  0  0  0  0  0  0  0  0  0  0
    2.7076  -51.7821  -23.8681 C   0  0  0  0  0  0  0  0  0  0  0  0
    2.2888  -52.8147  -24.8200 C   0  0  0  0  0  0  0  0  0  0  0  0
    3.2293  -53.4583  -25.4036 O   0  0  0  0  0  0  0  0  0  0  0  0
    0.9668  -53.1726  -25.1596 N   0  0  0  0  0  0  0  0  0  0  0  0
    0.7862  -54.2232  -26.1885 C   0  0  0  0  0  0  0  0  0  0  0  0
    0.0043  -53.5840  -27.3110 C   0  0  0  0  0  0  0  0  0  0  0  0
    0.3606  -53.6682  -28.6301 C   0  0  0  0  0  0  0  0  0  0  0  0
   -0.4148  -53.0094  -29.5980 C   0  0  0  0  0  0  0  0  0  0  0  0
   -1.5168  -52.2955  -29.1779 C   0  0  0  0  0  0  0  0  0  0  0  0
   -1.8554  -52.2292  -27.8201 C   0  0  0  0  0  0  0  0  0  0  0  0
   -1.1018  -52.8721  -26.8644 C   0  0  0  0  0  0  0  0  0  0  0  0
   -1.4234  -52.8730  -25.4385 C   0  0  0  0  0  0  0  0  0  0  0  0
   -0.2231  -52.6100  -24.5866 C   0  0  0  0  0  0  0  0  0  0  0  0
   -0.4392  -53.0976  -23.1932 C   0  0  0  0  0  0  0  0  0  0  0  0
   -0.2265  -52.3332  -22.2385 O   0  0  0  0  0  0  0  0  0  0  0  0
   -0.8684  -54.3775  -22.9913 O   0  0  0  0  0  0  0  0  0  0  0  0
   -1.7969  -54.6206  -23.3324 H   0  0  0  0  0  0  0  0  0  0  0  0
    4.0833  -51.9705  -23.4205 N   0  0  0  0  0  0  0  0  0  0  0  0
    4.1559  -52.9771  -23.1240 H   0  0  0  0  0  0  0  0  0  0  0  0
    4.3008  -51.1685  -22.2388 C   0  0  0  0  0  0  0  0  0  0  0  0
    5.6288  -50.4889  -22.2812 C   0  0  0  0  0  0  0  0  0  0  0  0
    5.8529  -49.5087  -23.0344 O   0  0  0  0  0  0  0  0  0  0  0  0
    6.6855  -50.9096  -21.4856 O   0  0  0  0  0  0  0  0  0  0  0  0
    6.9274  -51.8781  -21.3347 H   0  0  0  0  0  0  0  0  0  0  0  0
    4.1334  -51.9693  -20.9725 C   0  0  0  0  0  0  0  0  0  0  0  0
    3.0461  -51.4078  -20.0869 C   0  0  0  0  0  0  0  0  0  0  0  0
    2.7867  -49.9750  -20.3736 C   0  0  0  0  0  0  0  0  0  0  0  0
    1.6984  -49.5646  -21.1333 C   0  0  0  0  0  0  0  0  0  0  0  0
    1.4313  -48.2441  -21.4197 C   0  0  0  0  0  0  0  0  0  0  0  0
    2.2737  -47.2612  -20.9382 C   0  0  0  0  0  0  0  0  0  0  0  0
    3.3745  -47.6393  -20.1729 C   0  0  0  0  0  0  0  0  0  0  0  0
    3.6108  -48.9679  -19.9063 C   0  0  0  0  0  0  0  0  0  0  0  0
  1  2  1  0  0  0
  2 19  1  0  0  0
 19 21  1  0  0  0
 21 26  1  0  0  0
 26 27  1  0  0  0
 27 28  1  0  0  0
 28 29  2  0  0  0
 29 30  1  0  0  0
 30 31  2  0  0  0
 31 32  1  0  0  0
 32 33  2  0  0  0
 21 22  1  0  0  0
 22 23  2  0  0  0
 22 24  1  0  0  0
  2  3  1  0  0  0
  3  4  2  0  0  0
  3  5  1  0  0  0
  5  6  1  0  0  0
  6  7  1  0  0  0
  7  8  2  0  0  0
  8  9  1  0  0  0
  9 10  2  0  0  0
 10 11  1  0  0  0
 11 12  2  0  0  0
 12 13  1  0  0  0
 13 14  1  0  0  0
 14 15  1  0  0  0
 15 16  2  0  0  0
 15 17  1  0  0  0
 33 28  1  0  0  0
 14  5  1  0  0  0
 12  7  1  0  0  0
 19 20  1  0  0  0
 24 25  1  0  0  0
 17 18  1  0  0  0
M  END
> <minimizedAffinity>
-6.49217

> <CNNscore>
0.1934232563

> <CNNaffinity>
5.6361351013

> <CNN_VS>
1.0901596546

> <CNNaffinity_variance>
0.1430948377

$$$$
[H]OC(=O)[C@@]1([H])N(C(=O)[C@@]([H])(N([H])[C@]([H])(C(=O)O[H])C([H])([H])C([H])([H])c2c([H])c([H])c([H])c([H])c2[H])C([H])([H])[H])C([H])([H])c2c([H])c([H])c([H])c([H])c2C1([H])[H]


 33 35  0  0  0  0  0  0  0  0999 V2000
    4.8753  -48.7739  -22.1988 C   0  0  0  0  0  0  0  0  0  0  0  0
    4.3432  -50.0992  -22.7668 C   0  0  0  0  0  0  0  0  0  0  0  0
    3.7456  -50.8239  -21.6418 C   0  0  0  0  0  0  0  0  0  0  0  0
    4.5054  -51.6641  -21.0451 O   0  0  0  0  0  0  0  0  0  0  0  0
    2.4296  -50.6945  -21.1495 N   0  0  0  0  0  0  0  0  0  0  0  0
    2.0325  -51.5701  -20.0223 C   0  0  0  0  0  0  0  0  0  0  0  0
    0.8658  -52.3911  -20.5167 C   0  0  0  0  0  0  0  0  0  0  0  0
    0.7790  -53.7502  -20.3775 C   0  0  0  0  0  0  0  0  0  0  0  0
   -0.3333  -54.4282  -20.9021 C   0  0  0  0  0  0  0  0  0  0  0  0
   -1.3054  -53.6911  -21.5441 C   0  0  0  0  0  0  0  0  0  0  0  0
   -1.1875  -52.3007  -21.6696 C   0  0  0  0  0  0  0  0  0  0  0  0
   -0.1014  -51.6275  -21.1581 C   0  0  0  0  0  0  0  0  0  0  0  0
    0.0617  -50.1763  -21.2227 C   0  0  0  0  0  0  0  0  0  0  0  0
    1.4403  -49.7790  -21.6435 C   0  0  0  0  0  0  0  0  0  0  0  0
    1.7420  -48.3772  -21.2313 C   0  0  0  0  0  0  0  0  0  0  0  0
    1.8759  -47.5004  -22.0997 O   0  0  0  0  0  0  0  0  0  0  0  0
    1.8654  -48.0820  -19.9044 O   0  0  0  0  0  0  0  0  0  0  0  0
    1.0367  -48.1865  -19.3213 H   0  0  0  0  0  0  0  0  0  0  0  0
    3.3478  -49.6965  -23.7542 N   0  0  0  0  0  0  0  0  0  0  0  0
    2.4275  -50.0678  -23.4054 H   0  0  0  0  0  0  0  0  0  0  0  0
    3.6285  -50.3736  -24.9990 C   0  0  0  0  0  0  0  0  0  0  0  0
    3.3736  -49.4841  -26.1700 C   0  0  0  0  0  0  0  0  0  0  0  0
    3.4110  -49.9093  -27.3515 O   0  0  0  0  0  0  0  0  0  0  0  0
    3.0809  -48.1369  -26.0083 O   0  0  0  0  0  0  0  0  0  0  0  0
    3.5582  -47.5300  -25.3578 H   0  0  0  0  0  0  0  0  0  0  0  0
    2.8722  -51.6721  -25.1203 C   0  0  0  0  0  0  0  0  0  0  0  0
    1.4271  -51.5267  -24.7050 C   0  0  0  0  0  0  0  0  0  0  0  0
    0.4985  -51.9130  -25.7963 C   0  0  0  0  0  0  0  0  0  0  0  0
   -0.8803  -51.8215  -25.6526 C   0  0  0  0  0  0  0  0  0  0  0  0
   -1.7688  -52.1744  -26.6441 C   0  0  0  0  0  0  0  0  0  0  0  0
   -1.2881  -52.6454  -27.8502 C   0  0  0  0  0  0  0  0  0  0  0  0
    0.0898  -52.7494  -28.0267 C   0  0  0  0  0  0  0  0  0  0  0  0
    0.9482  -52.3879  -27.0146 C   0  0  0  0  0  0  0  0  0  0  0  0
  1  2  1  0  0  0
  2 19  1  0  0  0
 19 21  1  0  0  0
 21 26  1  0  0  0
 26 27  1  0  0  0
 27 28  1  0  0  0
 28 29  2  0  0  0
 29 30  1  0  0  0
 30 31  2  0  0  0
 31 32  1  0  0  0
 32 33  2  0  0  0
 21 22  1  0  0  0
 22 23  2  0  0  0
 22 24  1  0  0  0
  2  3  1  0  0  0
  3  4  2  0  0  0
  3  5  1  0  0  0
  5  6  1  0  0  0
  6  7  1  0  0  0
  7  8  2  0  0  0
  8  9  1  0  0  0
  9 10  2  0  0  0
 10 11  1  0  0  0
 11 12  2  0  0  0
 12 13  1  0  0  0
 13 14  1  0  0  0
 14 15  1  0  0  0
 15 16  2  0  0  0
 15 17  1  0  0  0
 33 28  1  0  0  0
 14  5  1  0  0  0
 12  7  1  0  0  0
 19 20  1  0  0  0
 24 25  1  0  0  0
 17 18  1  0  0  0
M  END
> <minimizedAffinity>
-7.65342

> <CNNscore>
0.1864036471

> <CNNaffinity>
5.4069337845

> <CNN_VS>
1.0078722239

> <CNNaffinity_variance>
0.4599595070

$$$$
[H]OC(=O)[C@@]1([H])N(C(=O)[C@@]([H])(N([H])[C@]([H])(C(=O)O[H])C([H])([H])C([H])([H])c2c([H])c([H])c([H])c([H])c2[H])C([H])([H])[H])C([H])([H])c2c([H])c([H])c([H])c([H])c2C1([H])[H]


 33 35  0  0  0  0  0  0  0  0999 V2000
   -0.1740  -51.1433  -21.1827 C   0  0  0  0  0  0  0  0  0  0  0  0
    1.0747  -51.8193  -21.7708 C   0  0  0  0  0  0  0  0  0  0  0  0
    2.1460  -51.6427  -20.7864 C   0  0  0  0  0  0  0  0  0  0  0  0
    2.2234  -52.5347  -19.8713 O   0  0  0  0  0  0  0  0  0  0  0  0
    3.0955  -50.5998  -20.7405 N   0  0  0  0  0  0  0  0  0  0  0  0
    4.0626  -50.6052  -19.6182 C   0  0  0  0  0  0  0  0  0  0  0  0
    3.8517  -49.3086  -18.8737 C   0  0  0  0  0  0  0  0  0  0  0  0
    3.7039  -49.2271  -17.5152 C   0  0  0  0  0  0  0  0  0  0  0  0
    3.4781  -47.9757  -16.9191 C   0  0  0  0  0  0  0  0  0  0  0  0
    3.4132  -46.8657  -17.7339 C   0  0  0  0  0  0  0  0  0  0  0  0
    3.5691  -46.9822  -19.1213 C   0  0  0  0  0  0  0  0  0  0  0  0
    3.7914  -48.2043  -19.7143 C   0  0  0  0  0  0  0  0  0  0  0  0
    3.9999  -48.3873  -21.1495 C   0  0  0  0  0  0  0  0  0  0  0  0
    3.2108  -49.5340  -21.6953 C   0  0  0  0  0  0  0  0  0  0  0  0
    3.7897  -50.0168  -22.9827 C   0  0  0  0  0  0  0  0  0  0  0  0
    4.5692  -50.9830  -22.9779 O   0  0  0  0  0  0  0  0  0  0  0  0
    3.4517  -49.3877  -24.1459 O   0  0  0  0  0  0  0  0  0  0  0  0
    2.4786  -49.4404  -24.4425 H   0  0  0  0  0  0  0  0  0  0  0  0
    0.6914  -53.2186  -21.9231 N   0  0  0  0  0  0  0  0  0  0  0  0
    1.5202  -53.7003  -22.3559 H   0  0  0  0  0  0  0  0  0  0  0  0
   -0.3886  -53.3026  -22.8787 C   0  0  0  0  0  0  0  0  0  0  0  0
   -1.2272  -54.5148  -22.6447 C   0  0  0  0  0  0  0  0  0  0  0  0
   -1.6774  -54.8055  -21.5084 O   0  0  0  0  0  0  0  0  0  0  0  0
   -1.5518  -55.3836  -23.6774 O   0  0  0  0  0  0  0  0  0  0  0  0
   -0.8988  -55.6885  -24.3844 H   0  0  0  0  0  0  0  0  0  0  0  0
    0.1081  -53.2442  -24.3009 C   0  0  0  0  0  0  0  0  0  0  0  0
   -0.4483  -52.0542  -25.0466 C   0  0  0  0  0  0  0  0  0  0  0  0
   -0.6018  -52.3345  -26.4959 C   0  0  0  0  0  0  0  0  0  0  0  0
    0.4906  -52.6067  -27.3098 C   0  0  0  0  0  0  0  0  0  0  0  0
    0.3826  -52.8678  -28.6579 C   0  0  0  0  0  0  0  0  0  0  0  0
   -0.8642  -52.8643  -29.2522 C   0  0  0  0  0  0  0  0  0  0  0  0
   -1.9806  -52.5949  -28.4637 C   0  0  0  0  0  0  0  0  0  0  0  0
   -1.8356  -52.3384  -27.1202 C   0  0  0  0  0  0  0  0  0  0  0  0
  1  2  1  0  0  0
  2 19  1  0  0  0
 19 21  1  0  0  0
 21 26  1  0  0  0
 26 27  1  0  0  0
 27 28  1  0  0  0
 28 29  2  0  0  0
 29 30  1  0  0  0
 30 31  2  0  0  0
 31 32  1  0  0  0
 32 33  2  0  0  0
 21 22  1  0  0  0
 22 23  2  0  0  0
 22 24  1  0  0  0
  2  3  1  0  0  0
  3  4  2  0  0  0
  3  5  1  0  0  0
  5  6  1  0  0  0
  6  7  1  0  0  0
  7  8  2  0  0  0
  8  9  1  0  0  0
  9 10  2  0  0  0
 10 11  1  0  0  0
 11 12  2  0  0  0
 12 13  1  0  0  0
 13 14  1  0  0  0
 14 15  1  0  0  0
 15 16  2  0  0  0
 15 17  1  0  0  0
 33 28  1  0  0  0
 14  5  1  0  0  0
 12  7  1  0  0  0
 19 20  1  0  0  0
 24 25  1  0  0  0
 17 18  1  0  0  0
M  END
> <minimizedAffinity>
-7.68660

> <CNNscore>
0.1774650514

> <CNNaffinity>
5.5235977173

> <CNN_VS>
0.9802455306

> <CNNaffinity_variance>
0.2087097466

$$$$
[H]OC(=O)[C@@]1([H])N(C(=O)[C@@]([H])(N([H])[C@]([H])(C(=O)O[H])C([H])([H])C([H])([H])c2c([H])c([H])c([H])c([H])c2[H])C([H])([H])[H])C([H])([H])c2c([H])c([H])c([H])c([H])c2C1([H])[H]


 33 35  0  0  0  0  0  0  0  0999 V2000
    3.4454  -50.1164  -24.1710 C   0  0  0  0  0  0  0  0  0  0  0  0
    2.7107  -51.1862  -23.3476 C   0  0  0  0  0  0  0  0  0  0  0  0
    2.4616  -52.3105  -24.2541 C   0  0  0  0  0  0  0  0  0  0  0  0
    3.4986  -52.8900  -24.7316 O   0  0  0  0  0  0  0  0  0  0  0  0
    1.2076  -52.8189  -24.6540 N   0  0  0  0  0  0  0  0  0  0  0  0
    1.2022  -53.9418  -25.6205 C   0  0  0  0  0  0  0  0  0  0  0  0
    0.4441  -53.4524  -26.8312 C   0  0  0  0  0  0  0  0  0  0  0  0
    0.8995  -53.5789  -28.1159 C   0  0  0  0  0  0  0  0  0  0  0  0
    0.1350  -53.0601  -29.1735 C   0  0  0  0  0  0  0  0  0  0  0  0
   -1.0575  -52.4367  -28.8739 C   0  0  0  0  0  0  0  0  0  0  0  0
   -1.4963  -52.3238  -27.5482 C   0  0  0  0  0  0  0  0  0  0  0  0
   -0.7542  -52.8297  -26.5053 C   0  0  0  0  0  0  0  0  0  0  0  0
   -1.1745  -52.7779  -25.1062 C   0  0  0  0  0  0  0  0  0  0  0  0
   -0.0685  -52.3455  -24.1977 C   0  0  0  0  0  0  0  0  0  0  0  0
   -0.3351  -52.7683  -22.7920 C   0  0  0  0  0  0  0  0  0  0  0  0
    0.1660  -53.8207  -22.3650 O   0  0  0  0  0  0  0  0  0  0  0  0
   -1.1261  -51.9895  -21.9978 O   0  0  0  0  0  0  0  0  0  0  0  0
   -0.7849  -51.0586  -21.7641 H   0  0  0  0  0  0  0  0  0  0  0  0
    3.6481  -51.5323  -22.2847 N   0  0  0  0  0  0  0  0  0  0  0  0
    3.4255  -52.5241  -22.0141 H   0  0  0  0  0  0  0  0  0  0  0  0
    3.3664  -50.7096  -21.1313 C   0  0  0  0  0  0  0  0  0  0  0  0
    4.6209  -50.3222  -20.4217 C   0  0  0  0  0  0  0  0  0  0  0  0
    5.7546  -50.4685  -20.9427 O   0  0  0  0  0  0  0  0  0  0  0  0
    4.5945  -49.7782  -19.1449 O   0  0  0  0  0  0  0  0  0  0  0  0
    4.0037  -50.1166  -18.3996 H   0  0  0  0  0  0  0  0  0  0  0  0
    2.3850  -51.3659  -20.1938 C   0  0  0  0  0  0  0  0  0  0  0  0
    1.2217  -50.4598  -19.8665 C   0  0  0  0  0  0  0  0  0  0  0  0
    0.4330  -50.9686  -18.7169 C   0  0  0  0  0  0  0  0  0  0  0  0
    0.2773  -50.2304  -17.5504 C   0  0  0  0  0  0  0  0  0  0  0  0
   -0.4452  -50.6748  -16.4652 C   0  0  0  0  0  0  0  0  0  0  0  0
   -1.0544  -51.9134  -16.5165 C   0  0  0  0  0  0  0  0  0  0  0  0
   -0.9176  -52.6790  -17.6722 C   0  0  0  0  0  0  0  0  0  0  0  0
   -0.1885  -52.2036  -18.7372 C   0  0  0  0  0  0  0  0  0  0  0  0
  1  2  1  0  0  0
  2 19  1  0  0  0
 19 21  1  0  0  0
 21 26  1  0  0  0
 26 27  1  0  0  0
 27 28  1  0  0  0
 28 29  2  0  0  0
 29 30  1  0  0  0
 30 31  2  0  0  0
 31 32  1  0  0  0
 32 33  2  0  0  0
 21 22  1  0  0  0
 22 23  2  0  0  0
 22 24  1  0  0  0
  2  3  1  0  0  0
  3  4  2  0  0  0
  3  5  1  0  0  0
  5  6  1  0  0  0
  6  7  1  0  0  0
  7  8  2  0  0  0
  8  9  1  0  0  0
  9 10  2  0  0  0
 10 11  1  0  0  0
 11 12  2  0  0  0
 12 13  1  0  0  0
 13 14  1  0  0  0
 14 15  1  0  0  0
 15 16  2  0  0  0
 15 17  1  0  0  0
 33 28  1  0  0  0
 14  5  1  0  0  0
 12  7  1  0  0  0
 19 20  1  0  0  0
 24 25  1  0  0  0
 17 18  1  0  0  0
M  END
> <minimizedAffinity>
-7.69895

> <CNNscore>
0.1643985659

> <CNNaffinity>
5.5208253860

> <CNN_VS>
0.9076157808

> <CNNaffinity_variance>
0.1297429949

$$$$
[H]OC(=O)[C@@]1([H])N(C(=O)[C@@]([H])(N([H])[C@]([H])(C(=O)O[H])C([H])([H])C([H])([H])c2c([H])c([H])c([H])c([H])c2[H])C([H])([H])[H])C([H])([H])c2c([H])c([H])c([H])c([H])c2C1([H])[H]


 33 35  0  0  0  0  0  0  0  0999 V2000
   -0.2454  -52.6700  -19.6656 C   0  0  0  0  0  0  0  0  0  0  0  0
    0.6979  -51.8538  -20.5634 C   0  0  0  0  0  0  0  0  0  0  0  0
    1.9513  -51.7007  -19.8195 C   0  0  0  0  0  0  0  0  0  0  0  0
    2.7435  -52.7063  -19.8369 O   0  0  0  0  0  0  0  0  0  0  0  0
    2.3750  -50.5693  -19.0906 N   0  0  0  0  0  0  0  0  0  0  0  0
    3.6700  -50.6619  -18.3769 C   0  0  0  0  0  0  0  0  0  0  0  0
    3.3627  -50.4403  -16.9152 C   0  0  0  0  0  0  0  0  0  0  0  0
    3.8178  -51.2516  -15.9109 C   0  0  0  0  0  0  0  0  0  0  0  0
    3.4483  -50.9804  -14.5835 C   0  0  0  0  0  0  0  0  0  0  0  0
    2.6327  -49.8959  -14.3403 C   0  0  0  0  0  0  0  0  0  0  0  0
    2.1840  -49.0842  -15.3904 C   0  0  0  0  0  0  0  0  0  0  0  0
    2.5414  -49.3418  -16.6944 C   0  0  0  0  0  0  0  0  0  0  0  0
    2.1384  -48.5122  -17.8284 C   0  0  0  0  0  0  0  0  0  0  0  0
    1.6606  -49.3285  -18.9864 C   0  0  0  0  0  0  0  0  0  0  0  0
    1.7350  -48.5493  -20.2566 C   0  0  0  0  0  0  0  0  0  0  0  0
    0.7040  -48.3688  -20.9239 O   0  0  0  0  0  0  0  0  0  0  0  0
    2.9370  -48.0470  -20.6638 O   0  0  0  0  0  0  0  0  0  0  0  0
    3.3706  -47.3348  -20.0787 H   0  0  0  0  0  0  0  0  0  0  0  0
    0.8625  -52.6754  -21.7576 N   0  0  0  0  0  0  0  0  0  0  0  0
    1.8952  -52.8548  -21.8454 H   0  0  0  0  0  0  0  0  0  0  0  0
    0.4719  -51.8999  -22.9120 C   0  0  0  0  0  0  0  0  0  0  0  0
   -0.3670  -52.7048  -23.8478 C   0  0  0  0  0  0  0  0  0  0  0  0
   -0.7184  -53.8818  -23.5845 O   0  0  0  0  0  0  0  0  0  0  0  0
   -0.8017  -52.1881  -25.0605 O   0  0  0  0  0  0  0  0  0  0  0  0
   -0.2219  -51.6432  -25.6820 H   0  0  0  0  0  0  0  0  0  0  0  0
    1.6601  -51.2982  -23.6182 C   0  0  0  0  0  0  0  0  0  0  0  0
    2.7925  -52.2872  -23.7645 C   0  0  0  0  0  0  0  0  0  0  0  0
    4.1060  -51.6715  -23.4516 C   0  0  0  0  0  0  0  0  0  0  0  0
    5.2159  -51.8578  -24.2661 C   0  0  0  0  0  0  0  0  0  0  0  0
    6.4488  -51.3032  -24.0025 C   0  0  0  0  0  0  0  0  0  0  0  0
    6.6137  -50.5187  -22.8777 C   0  0  0  0  0  0  0  0  0  0  0  0
    5.5202  -50.3120  -22.0398 C   0  0  0  0  0  0  0  0  0  0  0  0
    4.3033  -50.8816  -22.3340 C   0  0  0  0  0  0  0  0  0  0  0  0
  1  2  1  0  0  0
  2 19  1  0  0  0
 19 21  1  0  0  0
 21 26  1  0  0  0
 26 27  1  0  0  0
 27 28  1  0  0  0
 28 29  2  0  0  0
 29 30  1  0  0  0
 30 31  2  0  0  0
 31 32  1  0  0  0
 32 33  2  0  0  0
 21 22  1  0  0  0
 22 23  2  0  0  0
 22 24  1  0  0  0
  2  3  1  0  0  0
  3  4  2  0  0  0
  3  5  1  0  0  0
  5  6  1  0  0  0
  6  7  1  0  0  0
  7  8  2  0  0  0
  8  9  1  0  0  0
  9 10  2  0  0  0
 10 11  1  0  0  0
 11 12  2  0  0  0
 12 13  1  0  0  0
 13 14  1  0  0  0
 14 15  1  0  0  0
 15 16  2  0  0  0
 15 17  1  0  0  0
 33 28  1  0  0  0
 14  5  1  0  0  0
 12  7  1  0  0  0
 19 20  1  0  0  0
 24 25  1  0  0  0
 17 18  1  0  0  0
M  END
> <minimizedAffinity>
-6.21717

> <CNNscore>
0.1604585052

> <CNNaffinity>
5.0753874779

> <CNN_VS>
0.8143891096

> <CNNaffinity_variance>
0.3998977542

$$$$
[H]OC(=O)[C@@]1([H])N(c2nc(C#N)nc([H])c2[H])C([H])([H])[C@@]([H])(S(=O)(=O)c2c([H])c([H])c([H])c([H])c2C(F)(F)F)C1([H])[H]


 30 32  0  0  0  0  0  0  0  0999 V2000
    0.2873  -52.7978  -22.4529 N   0  0  0  0  0  0  0  0  0  0  0  0
    0.4361  -51.6780  -21.5483 C   0  0  0  0  0  0  0  0  0  0  0  0
    1.2765  -52.3503  -20.4278 C   0  0  0  0  0  0  0  0  0  0  0  0
    0.5037  -53.5874  -20.2311 C   0  0  0  0  0  0  0  0  0  0  0  0
    0.0221  -53.9465  -21.6500 C   0  0  0  0  0  0  0  0  0  0  0  0
   -0.5947  -52.5624  -25.9987 C   0  0  0  0  0  0  0  0  0  0  0  0
    0.6097  -52.5516  -26.5968 N   0  0  0  0  0  0  0  0  0  0  0  0
    1.7588  -52.6202  -25.8774 C   0  0  0  0  0  0  0  0  0  0  0  0
    1.6165  -52.7008  -24.5076 C   0  0  0  0  0  0  0  0  0  0  0  0
    0.3955  -52.7138  -23.8665 C   0  0  0  0  0  0  0  0  0  0  0  0
   -0.6964  -52.6420  -24.6595 N   0  0  0  0  0  0  0  0  0  0  0  0
   -2.7300  -52.4213  -27.4879 N   0  0  0  0  0  0  0  0  0  0  0  0
   -1.7731  -52.4875  -26.8128 C   0  0  0  0  0  0  0  0  0  0  0  0
   -1.3925  -54.3469  -21.6307 C   0  0  0  0  0  0  0  0  0  0  0  0
   -2.1795  -53.8089  -20.8266 O   0  0  0  0  0  0  0  0  0  0  0  0
   -1.8608  -55.3130  -22.4937 O   0  0  0  0  0  0  0  0  0  0  0  0
   -2.3697  -56.1403  -22.1932 H   0  0  0  0  0  0  0  0  0  0  0  0
    1.2640  -51.2366  -19.0020 S   0  0  0  0  0  0  0  0  0  0  0  0
    2.5664  -51.5083  -18.3084 O   0  0  0  0  0  0  0  0  0  0  0  0
    1.2387  -49.8800  -19.6151 O   0  0  0  0  0  0  0  0  0  0  0  0
   -0.0702  -51.6025  -17.9603 C   0  0  0  0  0  0  0  0  0  0  0  0
   -0.8535  -52.6735  -18.2882 C   0  0  0  0  0  0  0  0  0  0  0  0
   -1.9124  -53.0131  -17.4744 C   0  0  0  0  0  0  0  0  0  0  0  0
   -2.2003  -52.3005  -16.3387 C   0  0  0  0  0  0  0  0  0  0  0  0
   -1.3900  -51.2332  -16.0445 C   0  0  0  0  0  0  0  0  0  0  0  0
   -0.3004  -50.8438  -16.8375 C   0  0  0  0  0  0  0  0  0  0  0  0
    0.4967  -49.6868  -16.4307 C   0  0  0  0  0  0  0  0  0  0  0  0
    0.4681  -48.6077  -17.2839 F   0  0  0  0  0  0  0  0  0  0  0  0
    1.7781  -49.9989  -16.0234 F   0  0  0  0  0  0  0  0  0  0  0  0
   -0.0822  -49.1731  -15.2572 F   0  0  0  0  0  0  0  0  0  0  0  0
 12 13  3  0  0  0
 13  6  1  0  0  0
  6  7  2  0  0  0
  7  8  1  0  0  0
  8  9  2  0  0  0
  9 10  1  0  0  0
 10  1  1  0  0  0
  1  2  1  0  0  0
  2  3  1  0  0  0
  3 18  1  0  0  0
 18 19  2  0  0  0
 18 20  2  0  0  0
 18 21  1  0  0  0
 21 22  2  0  0  0
 22 23  1  0  0  0
 23 24  2  0  0  0
 24 25  1  0  0  0
 25 26  2  0  0  0
 26 27  1  0  0  0
 27 28  1  0  0  0
 27 29  1  0  0  0
 27 30  1  0  0  0
  3  4  1  0  0  0
  4  5  1  0  0  0
  5 14  1  0  0  0
 14 15  2  0  0  0
 14 16  1  0  0  0
 10 11  2  0  0  0
 11  6  1  0  0  0
  5  1  1  0  0  0
 26 21  1  0  0  0
 16 17  1  0  0  0
M  END
> <minimizedAffinity>
-8.04363

> <CNNscore>
0.5263741016

> <CNNaffinity>
6.1229429245

> <CNN_VS>
3.2229585648

> <CNNaffinity_variance>
0.2275006324

$$$$
[H]OC(=O)[C@@]1([H])N(c2nc(C#N)nc([H])c2[H])C([H])([H])[C@@]([H])(S(=O)(=O)c2c([H])c([H])c([H])c([H])c2C(F)(F)F)C1([H])[H]


 30 32  0  0  0  0  0  0  0  0999 V2000
    0.0792  -52.8184  -22.7784 N   0  0  0  0  0  0  0  0  0  0  0  0
    0.2891  -51.7172  -21.8631 C   0  0  0  0  0  0  0  0  0  0  0  0
    1.2754  -52.3846  -20.8651 C   0  0  0  0  0  0  0  0  0  0  0  0
    0.5754  -53.6560  -20.6200 C   0  0  0  0  0  0  0  0  0  0  0  0
   -0.0512  -53.9970  -21.9858 C   0  0  0  0  0  0  0  0  0  0  0  0
    1.0533  -52.7989  -26.3079 C   0  0  0  0  0  0  0  0  0  0  0  0
   -0.0913  -52.4514  -26.9225 N   0  0  0  0  0  0  0  0  0  0  0  0
   -1.2272  -52.2086  -26.2202 C   0  0  0  0  0  0  0  0  0  0  0  0
   -1.1363  -52.3390  -24.8499 C   0  0  0  0  0  0  0  0  0  0  0  0
    0.0228  -52.6937  -24.1921 C   0  0  0  0  0  0  0  0  0  0  0  0
    1.1060  -52.9168  -24.9687 N   0  0  0  0  0  0  0  0  0  0  0  0
    3.1810  -53.2314  -27.7511 N   0  0  0  0  0  0  0  0  0  0  0  0
    2.2209  -53.0426  -27.1044 C   0  0  0  0  0  0  0  0  0  0  0  0
   -1.4389  -54.4533  -21.8194 C   0  0  0  0  0  0  0  0  0  0  0  0
   -2.1511  -53.9615  -20.9213 O   0  0  0  0  0  0  0  0  0  0  0  0
   -1.9640  -55.4212  -22.6468 O   0  0  0  0  0  0  0  0  0  0  0  0
   -2.4052  -56.2733  -22.3106 H   0  0  0  0  0  0  0  0  0  0  0  0
    1.3848  -51.3095  -19.4141 S   0  0  0  0  0  0  0  0  0  0  0  0
    2.7186  -51.6371  -18.8101 O   0  0  0  0  0  0  0  0  0  0  0  0
    1.3630  -49.9368  -19.9906 O   0  0  0  0  0  0  0  0  0  0  0  0
    0.1068  -51.6644  -18.3006 C   0  0  0  0  0  0  0  0  0  0  0  0
   -0.7034  -52.7277  -18.5855 C   0  0  0  0  0  0  0  0  0  0  0  0
   -1.7188  -53.0586  -17.7148 C   0  0  0  0  0  0  0  0  0  0  0  0
   -1.9370  -52.3448  -16.5644 C   0  0  0  0  0  0  0  0  0  0  0  0
   -1.1018  -51.2854  -16.3145 C   0  0  0  0  0  0  0  0  0  0  0  0
   -0.0540  -50.9051  -17.1662 C   0  0  0  0  0  0  0  0  0  0  0  0
    0.7751  -49.7560  -16.8031 C   0  0  0  0  0  0  0  0  0  0  0  0
    0.7663  -48.7047  -17.6908 F   0  0  0  0  0  0  0  0  0  0  0  0
    2.0516  -50.0870  -16.3955 F   0  0  0  0  0  0  0  0  0  0  0  0
    0.2188  -49.1902  -15.6427 F   0  0  0  0  0  0  0  0  0  0  0  0
 12 13  3  0  0  0
 13  6  1  0  0  0
  6  7  2  0  0  0
  7  8  1  0  0  0
  8  9  2  0  0  0
  9 10  1  0  0  0
 10  1  1  0  0  0
  1  2  1  0  0  0
  2  3  1  0  0  0
  3 18  1  0  0  0
 18 19  2  0  0  0
 18 20  2  0  0  0
 18 21  1  0  0  0
 21 22  2  0  0  0
 22 23  1  0  0  0
 23 24  2  0  0  0
 24 25  1  0  0  0
 25 26  2  0  0  0
 26 27  1  0  0  0
 27 28  1  0  0  0
 27 29  1  0  0  0
 27 30  1  0  0  0
  3  4  1  0  0  0
  4  5  1  0  0  0
  5 14  1  0  0  0
 14 15  2  0  0  0
 14 16  1  0  0  0
 10 11  2  0  0  0
 11  6  1  0  0  0
  5  1  1  0  0  0
 26 21  1  0  0  0
 16 17  1  0  0  0
M  END
> <minimizedAffinity>
-7.96730

> <CNNscore>
0.4672278464

> <CNNaffinity>
6.1148300171

> <CNN_VS>
2.8570189476

> <CNNaffinity_variance>
0.3025535345

$$$$
[H]OC(=O)[C@@]1([H])N(c2nc(C#N)nc([H])c2[H])C([H])([H])[C@@]([H])(S(=O)(=O)c2c([H])c([H])c([H])c([H])c2C(F)(F)F)C1([H])[H]


 30 32  0  0  0  0  0  0  0  0999 V2000
    1.0840  -51.6555  -21.0167 N   0  0  0  0  0  0  0  0  0  0  0  0
    2.0984  -51.6876  -19.9851 C   0  0  0  0  0  0  0  0  0  0  0  0
    2.0526  -50.2058  -19.5201 C   0  0  0  0  0  0  0  0  0  0  0  0
    2.0962  -49.5237  -20.8237 C   0  0  0  0  0  0  0  0  0  0  0  0
    1.2716  -50.4434  -21.7448 C   0  0  0  0  0  0  0  0  0  0  0  0
   -0.8690  -54.3392  -22.5627 C   0  0  0  0  0  0  0  0  0  0  0  0
   -1.7780  -54.6205  -21.6123 N   0  0  0  0  0  0  0  0  0  0  0  0
   -1.7973  -53.9531  -20.4305 C   0  0  0  0  0  0  0  0  0  0  0  0
   -0.8360  -52.9775  -20.2656 C   0  0  0  0  0  0  0  0  0  0  0  0
    0.1084  -52.6672  -21.2215 C   0  0  0  0  0  0  0  0  0  0  0  0
    0.0548  -53.3807  -22.3679 N   0  0  0  0  0  0  0  0  0  0  0  0
   -0.9345  -55.6776  -24.7991 N   0  0  0  0  0  0  0  0  0  0  0  0
   -0.8994  -55.0790  -23.7910 C   0  0  0  0  0  0  0  0  0  0  0  0
    1.9484  -50.6229  -23.0376 C   0  0  0  0  0  0  0  0  0  0  0  0
    3.1562  -50.3335  -23.1520 O   0  0  0  0  0  0  0  0  0  0  0  0
    1.2618  -51.1089  -24.1283 O   0  0  0  0  0  0  0  0  0  0  0  0
    1.2271  -50.6390  -25.0293 H   0  0  0  0  0  0  0  0  0  0  0  0
    3.5099  -49.9191  -18.4870 S   0  0  0  0  0  0  0  0  0  0  0  0
    3.7000  -51.2110  -17.7481 O   0  0  0  0  0  0  0  0  0  0  0  0
    4.5999  -49.6827  -19.4734 O   0  0  0  0  0  0  0  0  0  0  0  0
    3.2200  -48.6196  -17.3795 C   0  0  0  0  0  0  0  0  0  0  0  0
    3.8495  -47.4306  -17.6207 C   0  0  0  0  0  0  0  0  0  0  0  0
    3.6294  -46.3637  -16.7769 C   0  0  0  0  0  0  0  0  0  0  0  0
    2.7903  -46.4658  -15.6970 C   0  0  0  0  0  0  0  0  0  0  0  0
    2.1774  -47.6756  -15.4898 C   0  0  0  0  0  0  0  0  0  0  0  0
    2.3662  -48.7932  -16.3164 C   0  0  0  0  0  0  0  0  0  0  0  0
    1.6634  -50.0367  -16.0012 C   0  0  0  0  0  0  0  0  0  0  0  0
    2.4464  -51.0675  -15.5346 F   0  0  0  0  0  0  0  0  0  0  0  0
    0.7810  -50.4501  -16.9789 F   0  0  0  0  0  0  0  0  0  0  0  0
    0.8141  -49.7716  -14.9128 F   0  0  0  0  0  0  0  0  0  0  0  0
 12 13  3  0  0  0
 13  6  1  0  0  0
  6  7  2  0  0  0
  7  8  1  0  0  0
  8  9  2  0  0  0
  9 10  1  0  0  0
 10  1  1  0  0  0
  1  2  1  0  0  0
  2  3  1  0  0  0
  3 18  1  0  0  0
 18 19  2  0  0  0
 18 20  2  0  0  0
 18 21  1  0  0  0
 21 22  2  0  0  0
 22 23  1  0  0  0
 23 24  2  0  0  0
 24 25  1  0  0  0
 25 26  2  0  0  0
 26 27  1  0  0  0
 27 28  1  0  0  0
 27 29  1  0  0  0
 27 30  1  0  0  0
  3  4  1  0  0  0
  4  5  1  0  0  0
  5 14  1  0  0  0
 14 15  2  0  0  0
 14 16  1  0  0  0
 10 11  2  0  0  0
 11  6  1  0  0  0
  5  1  1  0  0  0
 26 21  1  0  0  0
 16 17  1  0  0  0
M  END
> <minimizedAffinity>
-6.09277

> <CNNscore>
0.4216292202

> <CNNaffinity>
5.7876801491

> <CNN_VS>
2.4402551651

> <CNNaffinity_variance>
0.0656116754

$$$$
[H]OC(=O)[C@@]1([H])N(c2nc(C#N)nc([H])c2[H])C([H])([H])[C@@]([H])(S(=O)(=O)c2c([H])c([H])c([H])c([H])c2C(F)(F)F)C1([H])[H]


 30 32  0  0  0  0  0  0  0  0999 V2000
   -0.1084  -52.9714  -23.7765 N   0  0  0  0  0  0  0  0  0  0  0  0
    0.0270  -51.7911  -22.9501 C   0  0  0  0  0  0  0  0  0  0  0  0
    1.1457  -52.2693  -21.9837 C   0  0  0  0  0  0  0  0  0  0  0  0
    0.6174  -53.5912  -21.6095 C   0  0  0  0  0  0  0  0  0  0  0  0
   -0.0489  -54.0977  -22.9033 C   0  0  0  0  0  0  0  0  0  0  0  0
    0.5018  -53.4876  -27.3496 C   0  0  0  0  0  0  0  0  0  0  0  0
   -0.5798  -52.9210  -27.9131 N   0  0  0  0  0  0  0  0  0  0  0  0
   -1.5528  -52.3476  -27.1601 C   0  0  0  0  0  0  0  0  0  0  0  0
   -1.3657  -52.3815  -25.7937 C   0  0  0  0  0  0  0  0  0  0  0  0
   -0.2677  -52.9551  -25.1877 C   0  0  0  0  0  0  0  0  0  0  0  0
    0.6519  -53.5027  -26.0127 N   0  0  0  0  0  0  0  0  0  0  0  0
    2.3126  -54.5679  -28.8829 N   0  0  0  0  0  0  0  0  0  0  0  0
    1.4961  -54.0776  -28.1983 C   0  0  0  0  0  0  0  0  0  0  0  0
   -1.3598  -54.6955  -22.6107 C   0  0  0  0  0  0  0  0  0  0  0  0
   -1.8840  -54.5263  -21.4917 O   0  0  0  0  0  0  0  0  0  0  0  0
   -2.0188  -55.4430  -23.5615 O   0  0  0  0  0  0  0  0  0  0  0  0
   -2.3585  -56.3879  -23.4016 H   0  0  0  0  0  0  0  0  0  0  0  0
    1.2182  -51.0880  -20.6154 S   0  0  0  0  0  0  0  0  0  0  0  0
   -0.2156  -50.7242  -20.3638 O   0  0  0  0  0  0  0  0  0  0  0  0
    1.7901  -51.8829  -19.4938 O   0  0  0  0  0  0  0  0  0  0  0  0
    2.1317  -49.6892  -21.0716 C   0  0  0  0  0  0  0  0  0  0  0  0
    1.4375  -48.5917  -21.4982 C   0  0  0  0  0  0  0  0  0  0  0  0
    2.1240  -47.4499  -21.8497 C   0  0  0  0  0  0  0  0  0  0  0  0
    3.4922  -47.3870  -21.7812 C   0  0  0  0  0  0  0  0  0  0  0  0
    4.1517  -48.5093  -21.3477 C   0  0  0  0  0  0  0  0  0  0  0  0
    3.5030  -49.6969  -20.9783 C   0  0  0  0  0  0  0  0  0  0  0  0
    4.3055  -50.8355  -20.5321 C   0  0  0  0  0  0  0  0  0  0  0  0
    4.2102  -51.9745  -21.2981 F   0  0  0  0  0  0  0  0  0  0  0  0
    4.2051  -51.1025  -19.1816 F   0  0  0  0  0  0  0  0  0  0  0  0
    5.6568  -50.4749  -20.6745 F   0  0  0  0  0  0  0  0  0  0  0  0
 12 13  3  0  0  0
 13  6  1  0  0  0
  6  7  2  0  0  0
  7  8  1  0  0  0
  8  9  2  0  0  0
  9 10  1  0  0  0
 10  1  1  0  0  0
  1  2  1  0  0  0
  2  3  1  0  0  0
  3 18  1  0  0  0
 18 19  2  0  0  0
 18 20  2  0  0  0
 18 21  1  0  0  0
 21 22  2  0  0  0
 22 23  1  0  0  0
 23 24  2  0  0  0
 24 25  1  0  0  0
 25 26  2  0  0  0
 26 27  1  0  0  0
 27 28  1  0  0  0
 27 29  1  0  0  0
 27 30  1  0  0  0
  3  4  1  0  0  0
  4  5  1  0  0  0
  5 14  1  0  0  0
 14 15  2  0  0  0
 14 16  1  0  0  0
 10 11  2  0  0  0
 11  6  1  0  0  0
  5  1  1  0  0  0
 26 21  1  0  0  0
 16 17  1  0  0  0
M  END
> <minimizedAffinity>
-7.39094

> <CNNscore>
0.2398730218

> <CNNaffinity>
6.3446998596

> <CNN_VS>
1.5219223499

> <CNNaffinity_variance>
0.1017460451

$$$$
[H]OC(=O)[C@@]1([H])N(c2nc(C#N)nc([H])c2[H])C([H])([H])[C@@]([H])(S(=O)(=O)c2c([H])c([H])c([H])c([H])c2C(F)(F)F)C1([H])[H]


 30 32  0  0  0  0  0  0  0  0999 V2000
    2.0414  -50.5791  -22.2619 N   0  0  0  0  0  0  0  0  0  0  0  0
    2.5491  -51.1002  -21.0109 C   0  0  0  0  0  0  0  0  0  0  0  0
    1.8363  -50.1440  -20.0150 C   0  0  0  0  0  0  0  0  0  0  0  0
    2.1248  -48.8474  -20.6491 C   0  0  0  0  0  0  0  0  0  0  0  0
    2.0626  -49.1567  -22.1574 C   0  0  0  0  0  0  0  0  0  0  0  0
    0.3184  -53.1382  -24.2338 C   0  0  0  0  0  0  0  0  0  0  0  0
    0.7947  -52.9193  -25.4722 N   0  0  0  0  0  0  0  0  0  0  0  0
    1.6942  -51.9337  -25.7215 C   0  0  0  0  0  0  0  0  0  0  0  0
    2.0860  -51.1773  -24.6364 C   0  0  0  0  0  0  0  0  0  0  0  0
    1.6151  -51.3783  -23.3559 C   0  0  0  0  0  0  0  0  0  0  0  0
    0.7227  -52.3807  -23.1980 N   0  0  0  0  0  0  0  0  0  0  0  0
   -1.3989  -55.0639  -23.8602 N   0  0  0  0  0  0  0  0  0  0  0  0
   -0.6304  -54.1949  -24.0333 C   0  0  0  0  0  0  0  0  0  0  0  0
    3.1868  -48.5236  -22.8624 C   0  0  0  0  0  0  0  0  0  0  0  0
    2.9854  -47.9141  -23.9318 O   0  0  0  0  0  0  0  0  0  0  0  0
    4.4648  -48.5957  -22.3539 O   0  0  0  0  0  0  0  0  0  0  0  0
    5.2648  -48.9347  -22.8821 H   0  0  0  0  0  0  0  0  0  0  0  0
    2.6188  -50.3668  -18.3991 S   0  0  0  0  0  0  0  0  0  0  0  0
    3.5892  -51.4917  -18.6094 O   0  0  0  0  0  0  0  0  0  0  0  0
    3.3172  -49.0730  -18.1646 O   0  0  0  0  0  0  0  0  0  0  0  0
    1.4364  -50.7954  -17.2084 C   0  0  0  0  0  0  0  0  0  0  0  0
    0.1498  -50.9785  -17.6319 C   0  0  0  0  0  0  0  0  0  0  0  0
   -0.8183  -51.3419  -16.7212 C   0  0  0  0  0  0  0  0  0  0  0  0
   -0.5213  -51.5259  -15.3951 C   0  0  0  0  0  0  0  0  0  0  0  0
    0.7815  -51.3330  -15.0105 C   0  0  0  0  0  0  0  0  0  0  0  0
    1.8054  -50.9626  -15.8950 C   0  0  0  0  0  0  0  0  0  0  0  0
    3.1611  -50.7814  -15.3764 C   0  0  0  0  0  0  0  0  0  0  0  0
    3.6473  -49.4945  -15.4031 F   0  0  0  0  0  0  0  0  0  0  0  0
    4.0760  -51.6972  -15.8554 F   0  0  0  0  0  0  0  0  0  0  0  0
    3.1244  -51.0735  -14.0018 F   0  0  0  0  0  0  0  0  0  0  0  0
 12 13  3  0  0  0
 13  6  1  0  0  0
  6  7  2  0  0  0
  7  8  1  0  0  0
  8  9  2  0  0  0
  9 10  1  0  0  0
 10  1  1  0  0  0
  1  2  1  0  0  0
  2  3  1  0  0  0
  3 18  1  0  0  0
 18 19  2  0  0  0
 18 20  2  0  0  0
 18 21  1  0  0  0
 21 22  2  0  0  0
 22 23  1  0  0  0
 23 24  2  0  0  0
 24 25  1  0  0  0
 25 26  2  0  0  0
 26 27  1  0  0  0
 27 28  1  0  0  0
 27 29  1  0  0  0
 27 30  1  0  0  0
  3  4  1  0  0  0
  4  5  1  0  0  0
  5 14  1  0  0  0
 14 15  2  0  0  0
 14 16  1  0  0  0
 10 11  2  0  0  0
 11  6  1  0  0  0
  5  1  1  0  0  0
 26 21  1  0  0  0
 16 17  1  0  0  0
M  END
> <minimizedAffinity>
-6.12244

> <CNNscore>
0.2228284478

> <CNNaffinity>
5.9873676300

> <CNN_VS>
1.3341557980

> <CNNaffinity_variance>
0.6662860513

$$$$
[H]OC(=O)[C@@]1([H])N(c2nc(C#N)nc([H])c2[H])C([H])([H])[C@@]([H])(S(=O)(=O)c2c([H])c([H])c([H])c([H])c2C(F)(F)F)C1([H])[H]


 30 32  0  0  0  0  0  0  0  0999 V2000
    1.6694  -51.1754  -23.5134 N   0  0  0  0  0  0  0  0  0  0  0  0
    2.1199  -51.6963  -22.2405 C   0  0  0  0  0  0  0  0  0  0  0  0
    1.9014  -50.4437  -21.3476 C   0  0  0  0  0  0  0  0  0  0  0  0
    2.5321  -49.4130  -22.1881 C   0  0  0  0  0  0  0  0  0  0  0  0
    2.1840  -49.8498  -23.6242 C   0  0  0  0  0  0  0  0  0  0  0  0
   -0.2901  -53.8414  -25.0817 C   0  0  0  0  0  0  0  0  0  0  0  0
   -0.6843  -53.2715  -26.2342 N   0  0  0  0  0  0  0  0  0  0  0  0
   -0.3325  -51.9998  -26.5527 C   0  0  0  0  0  0  0  0  0  0  0  0
    0.4472  -51.3339  -25.6298 C   0  0  0  0  0  0  0  0  0  0  0  0
    0.8665  -51.8918  -24.4404 C   0  0  0  0  0  0  0  0  0  0  0  0
    0.4705  -53.1620  -24.2040 N   0  0  0  0  0  0  0  0  0  0  0  0
   -1.0323  -56.2901  -24.5819 N   0  0  0  0  0  0  0  0  0  0  0  0
   -0.6940  -55.1887  -24.8013 C   0  0  0  0  0  0  0  0  0  0  0  0
    3.3606  -49.7380  -24.4988 C   0  0  0  0  0  0  0  0  0  0  0  0
    3.5007  -48.7349  -25.2266 O   0  0  0  0  0  0  0  0  0  0  0  0
    4.3139  -50.7319  -24.5240 O   0  0  0  0  0  0  0  0  0  0  0  0
    4.6245  -51.1954  -25.3740 H   0  0  0  0  0  0  0  0  0  0  0  0
    2.7542  -50.7428  -19.7803 S   0  0  0  0  0  0  0  0  0  0  0  0
    3.1337  -52.1933  -19.8361 O   0  0  0  0  0  0  0  0  0  0  0  0
    3.9488  -49.8572  -19.8548 O   0  0  0  0  0  0  0  0  0  0  0  0
    1.6918  -50.4408  -18.4464 C   0  0  0  0  0  0  0  0  0  0  0  0
    2.0570  -49.4727  -17.5533 C   0  0  0  0  0  0  0  0  0  0  0  0
    1.2298  -49.1849  -16.4896 C   0  0  0  0  0  0  0  0  0  0  0  0
    0.0439  -49.8483  -16.3044 C   0  0  0  0  0  0  0  0  0  0  0  0
   -0.2866  -50.8123  -17.2230 C   0  0  0  0  0  0  0  0  0  0  0  0
    0.5180  -51.1452  -18.3228 C   0  0  0  0  0  0  0  0  0  0  0  0
    0.0692  -52.1924  -19.2401 C   0  0  0  0  0  0  0  0  0  0  0  0
    0.9511  -53.2282  -19.4468 F   0  0  0  0  0  0  0  0  0  0  0  0
   -0.4673  -51.7178  -20.4200 F   0  0  0  0  0  0  0  0  0  0  0  0
   -1.0287  -52.8318  -18.6384 F   0  0  0  0  0  0  0  0  0  0  0  0
 12 13  3  0  0  0
 13  6  1  0  0  0
  6  7  2  0  0  0
  7  8  1  0  0  0
  8  9  2  0  0  0
  9 10  1  0  0  0
 10  1  1  0  0  0
  1  2  1  0  0  0
  2  3  1  0  0  0
  3 18  1  0  0  0
 18 19  2  0  0  0
 18 20  2  0  0  0
 18 21  1  0  0  0
 21 22  2  0  0  0
 22 23  1  0  0  0
 23 24  2  0  0  0
 24 25  1  0  0  0
 25 26  2  0  0  0
 26 27  1  0  0  0
 27 28  1  0  0  0
 27 29  1  0  0  0
 27 30  1  0  0  0
  3  4  1  0  0  0
  4  5  1  0  0  0
  5 14  1  0  0  0
 14 15  2  0  0  0
 14 16  1  0  0  0
 10 11  2  0  0  0
 11  6  1  0  0  0
  5  1  1  0  0  0
 26 21  1  0  0  0
 16 17  1  0  0  0
M  END
> <minimizedAffinity>
-6.85254

> <CNNscore>
0.2081871927

> <CNNaffinity>
6.1256742477

> <CNN_VS>
1.2752869129

> <CNNaffinity_variance>
0.2015215904

$$$$
[H]OC(=O)[C@@]1([H])N(c2nc(C#N)nc([H])c2[H])C([H])([H])[C@@]([H])(S(=O)(=O)c2c([H])c([H])c([H])c([H])c2C(F)(F)F)C1([H])[H]


 30 32  0  0  0  0  0  0  0  0999 V2000
    2.2124  -51.1972  -24.9707 N   0  0  0  0  0  0  0  0  0  0  0  0
    2.0907  -51.7115  -23.6235 C   0  0  0  0  0  0  0  0  0  0  0  0
    1.6348  -50.4220  -22.8862 C   0  0  0  0  0  0  0  0  0  0  0  0
    2.6181  -49.4614  -23.4123 C   0  0  0  0  0  0  0  0  0  0  0  0
    2.8264  -49.9137  -24.8705 C   0  0  0  0  0  0  0  0  0  0  0  0
    0.0725  -52.6011  -27.5892 C   0  0  0  0  0  0  0  0  0  0  0  0
    0.9614  -53.2084  -28.3952 N   0  0  0  0  0  0  0  0  0  0  0  0
    2.2915  -53.1892  -28.1251 C   0  0  0  0  0  0  0  0  0  0  0  0
    2.6720  -52.5146  -26.9836 C   0  0  0  0  0  0  0  0  0  0  0  0
    1.7839  -51.8828  -26.1385 C   0  0  0  0  0  0  0  0  0  0  0  0
    0.4791  -51.9519  -26.4832 N   0  0  0  0  0  0  0  0  0  0  0  0
   -2.4614  -52.7074  -28.1934 N   0  0  0  0  0  0  0  0  0  0  0  0
   -1.3201  -52.6563  -27.9276 C   0  0  0  0  0  0  0  0  0  0  0  0
    4.2557  -49.9079  -25.2151 C   0  0  0  0  0  0  0  0  0  0  0  0
    5.1028  -50.2299  -24.3582 O   0  0  0  0  0  0  0  0  0  0  0  0
    4.6721  -49.5496  -26.4782 O   0  0  0  0  0  0  0  0  0  0  0  0
    5.3645  -48.8279  -26.6614 H   0  0  0  0  0  0  0  0  0  0  0  0
    1.7839  -50.7345  -21.1104 S   0  0  0  0  0  0  0  0  0  0  0  0
    3.1249  -51.3906  -20.9611 O   0  0  0  0  0  0  0  0  0  0  0  0
    1.7671  -49.3719  -20.5105 O   0  0  0  0  0  0  0  0  0  0  0  0
    0.5230  -51.7940  -20.5748 C   0  0  0  0  0  0  0  0  0  0  0  0
   -0.1285  -52.5320  -21.5229 C   0  0  0  0  0  0  0  0  0  0  0  0
   -1.1233  -53.4041  -21.1376 C   0  0  0  0  0  0  0  0  0  0  0  0
   -1.4767  -53.5509  -19.8207 C   0  0  0  0  0  0  0  0  0  0  0  0
   -0.7985  -52.7928  -18.9001 C   0  0  0  0  0  0  0  0  0  0  0  0
    0.2210  -51.8903  -19.2373 C   0  0  0  0  0  0  0  0  0  0  0  0
    0.8771  -51.1299  -18.1738 C   0  0  0  0  0  0  0  0  0  0  0  0
    0.5544  -49.7942  -18.1037 F   0  0  0  0  0  0  0  0  0  0  0  0
    2.2373  -51.3460  -18.0818 F   0  0  0  0  0  0  0  0  0  0  0  0
    0.4027  -51.6310  -16.9490 F   0  0  0  0  0  0  0  0  0  0  0  0
 12 13  3  0  0  0
 13  6  1  0  0  0
  6  7  2  0  0  0
  7  8  1  0  0  0
  8  9  2  0  0  0
  9 10  1  0  0  0
 10  1  1  0  0  0
  1  2  1  0  0  0
  2  3  1  0  0  0
  3 18  1  0  0  0
 18 19  2  0  0  0
 18 20  2  0  0  0
 18 21  1  0  0  0
 21 22  2  0  0  0
 22 23  1  0  0  0
 23 24  2  0  0  0
 24 25  1  0  0  0
 25 26  2  0  0  0
 26 27  1  0  0  0
 27 28  1  0  0  0
 27 29  1  0  0  0
 27 30  1  0  0  0
  3  4  1  0  0  0
  4  5  1  0  0  0
  5 14  1  0  0  0
 14 15  2  0  0  0
 14 16  1  0  0  0
 10 11  2  0  0  0
 11  6  1  0  0  0
  5  1  1  0  0  0
 26 21  1  0  0  0
 16 17  1  0  0  0
M  END
> <minimizedAffinity>
-7.45199

> <CNNscore>
0.1884832382

> <CNNaffinity>
5.8821086884

> <CNN_VS>
1.1086789370

> <CNNaffinity_variance>
0.2021352500

$$$$
[H]OC(=O)[C@@]1([H])N(c2nc(C#N)nc([H])c2[H])C([H])([H])[C@@]([H])(S(=O)(=O)c2c([H])c([H])c([H])c([H])c2C(F)(F)F)C1([H])[H]


 30 32  0  0  0  0  0  0  0  0999 V2000
    1.6346  -51.5339  -23.5955 N   0  0  0  0  0  0  0  0  0  0  0  0
    2.1619  -51.9014  -22.2989 C   0  0  0  0  0  0  0  0  0  0  0  0
    1.8206  -50.6145  -21.4979 C   0  0  0  0  0  0  0  0  0  0  0  0
    2.3183  -49.5897  -22.4298 C   0  0  0  0  0  0  0  0  0  0  0  0
    1.9966  -50.1726  -23.8194 C   0  0  0  0  0  0  0  0  0  0  0  0
    0.2476  -53.1094  -26.5956 C   0  0  0  0  0  0  0  0  0  0  0  0
   -0.5186  -54.0876  -26.0813 N   0  0  0  0  0  0  0  0  0  0  0  0
   -0.6188  -54.2788  -24.7411 C   0  0  0  0  0  0  0  0  0  0  0  0
    0.1070  -53.4158  -23.9464 C   0  0  0  0  0  0  0  0  0  0  0  0
    0.9008  -52.4041  -24.4449 C   0  0  0  0  0  0  0  0  0  0  0  0
    0.9424  -52.2854  -25.7903 N   0  0  0  0  0  0  0  0  0  0  0  0
    0.3768  -52.8401  -29.1855 N   0  0  0  0  0  0  0  0  0  0  0  0
    0.3129  -52.9572  -28.0202 C   0  0  0  0  0  0  0  0  0  0  0  0
    3.1384  -50.0011  -24.7297 C   0  0  0  0  0  0  0  0  0  0  0  0
    4.2846  -49.8399  -24.2652 O   0  0  0  0  0  0  0  0  0  0  0  0
    2.9565  -50.0164  -26.0950 O   0  0  0  0  0  0  0  0  0  0  0  0
    3.2763  -49.2775  -26.7159 H   0  0  0  0  0  0  0  0  0  0  0  0
    2.7280  -50.6952  -19.9348 S   0  0  0  0  0  0  0  0  0  0  0  0
    3.2490  -52.1013  -19.8811 O   0  0  0  0  0  0  0  0  0  0  0  0
    3.8269  -49.7067  -20.1141 O   0  0  0  0  0  0  0  0  0  0  0  0
    1.6658  -50.3868  -18.6022 C   0  0  0  0  0  0  0  0  0  0  0  0
    2.0007  -49.3740  -17.7476 C   0  0  0  0  0  0  0  0  0  0  0  0
    1.1719  -49.0803  -16.6867 C   0  0  0  0  0  0  0  0  0  0  0  0
    0.0141  -49.7816  -16.4668 C   0  0  0  0  0  0  0  0  0  0  0  0
   -0.2865  -50.7898  -17.3473 C   0  0  0  0  0  0  0  0  0  0  0  0
    0.5212  -51.1307  -18.4424 C   0  0  0  0  0  0  0  0  0  0  0  0
    0.1057  -52.2266  -19.3177 C   0  0  0  0  0  0  0  0  0  0  0  0
    1.0226  -53.2378  -19.4906 F   0  0  0  0  0  0  0  0  0  0  0  0
   -0.4522  -51.8153  -20.5114 F   0  0  0  0  0  0  0  0  0  0  0  0
   -0.9665  -52.8810  -18.6866 F   0  0  0  0  0  0  0  0  0  0  0  0
 12 13  3  0  0  0
 13  6  1  0  0  0
  6  7  2  0  0  0
  7  8  1  0  0  0
  8  9  2  0  0  0
  9 10  1  0  0  0
 10  1  1  0  0  0
  1  2  1  0  0  0
  2  3  1  0  0  0
  3 18  1  0  0  0
 18 19  2  0  0  0
 18 20  2  0  0  0
 18 21  1  0  0  0
 21 22  2  0  0  0
 22 23  1  0  0  0
 23 24  2  0  0  0
 24 25  1  0  0  0
 25 26  2  0  0  0
 26 27  1  0  0  0
 27 28  1  0  0  0
 27 29  1  0  0  0
 27 30  1  0  0  0
  3  4  1  0  0  0
  4  5  1  0  0  0
  5 14  1  0  0  0
 14 15  2  0  0  0
 14 16  1  0  0  0
 10 11  2  0  0  0
 11  6  1  0  0  0
  5  1  1  0  0  0
 26 21  1  0  0  0
 16 17  1  0  0  0
M  END
> <minimizedAffinity>
-7.20699

> <CNNscore>
0.1622170806

> <CNNaffinity>
5.9380426407

> <CNN_VS>
0.9632519484

> <CNNaffinity_variance>
0.1673488468

$$$$
[H]OC(=O)[C@@]1([H])N(c2nc(C#N)nc([H])c2[H])C([H])([H])[C@@]([H])(S(=O)(=O)c2c([H])c([H])c([H])c([H])c2C(F)(F)F)C1([H])[H]


 30 32  0  0  0  0  0  0  0  0999 V2000
    0.9696  -51.9665  -22.1724 N   0  0  0  0  0  0  0  0  0  0  0  0
    1.5995  -52.1164  -20.8781 C   0  0  0  0  0  0  0  0  0  0  0  0
    1.1575  -50.7847  -20.2108 C   0  0  0  0  0  0  0  0  0  0  0  0
    1.4899  -49.8341  -21.2843 C   0  0  0  0  0  0  0  0  0  0  0  0
    1.1655  -50.6120  -22.5742 C   0  0  0  0  0  0  0  0  0  0  0  0
   -0.1257  -54.2228  -24.8400 C   0  0  0  0  0  0  0  0  0  0  0  0
   -1.0089  -55.0140  -24.2057 N   0  0  0  0  0  0  0  0  0  0  0  0
   -1.2875  -54.8507  -22.8873 C   0  0  0  0  0  0  0  0  0  0  0  0
   -0.6150  -53.8325  -22.2438 C   0  0  0  0  0  0  0  0  0  0  0  0
    0.2956  -53.0056  -22.8675 C   0  0  0  0  0  0  0  0  0  0  0  0
    0.5124  -53.2386  -24.1808 N   0  0  0  0  0  0  0  0  0  0  0  0
    0.3252  -54.6360  -27.3743 N   0  0  0  0  0  0  0  0  0  0  0  0
    0.1266  -54.4446  -26.2343 C   0  0  0  0  0  0  0  0  0  0  0  0
    2.2335  -50.4336  -23.5688 C   0  0  0  0  0  0  0  0  0  0  0  0
    3.3729  -50.0841  -23.2010 O   0  0  0  0  0  0  0  0  0  0  0  0
    1.9898  -50.6487  -24.9073 O   0  0  0  0  0  0  0  0  0  0  0  0
    2.1883  -49.9664  -25.6345 H   0  0  0  0  0  0  0  0  0  0  0  0
    2.1460  -50.5792  -18.7095 S   0  0  0  0  0  0  0  0  0  0  0  0
    3.2337  -51.6046  -18.8390 O   0  0  0  0  0  0  0  0  0  0  0  0
    2.6782  -49.1935  -18.8252 O   0  0  0  0  0  0  0  0  0  0  0  0
    1.1820  -50.8863  -17.3039 C   0  0  0  0  0  0  0  0  0  0  0  0
   -0.1375  -51.1871  -17.4951 C   0  0  0  0  0  0  0  0  0  0  0  0
   -0.9352  -51.4601  -16.4053 C   0  0  0  0  0  0  0  0  0  0  0  0
   -0.4357  -51.4379  -15.1284 C   0  0  0  0  0  0  0  0  0  0  0  0
    0.8934  -51.1322  -14.9790 C   0  0  0  0  0  0  0  0  0  0  0  0
    1.7496  -50.8460  -16.0527 C   0  0  0  0  0  0  0  0  0  0  0  0
    3.1513  -50.5301  -15.7788 C   0  0  0  0  0  0  0  0  0  0  0  0
    3.5676  -49.2727  -16.1515 F   0  0  0  0  0  0  0  0  0  0  0  0
    4.0384  -51.5129  -16.1693 F   0  0  0  0  0  0  0  0  0  0  0  0
    3.3094  -50.5107  -14.3820 F   0  0  0  0  0  0  0  0  0  0  0  0
 12 13  3  0  0  0
 13  6  1  0  0  0
  6  7  2  0  0  0
  7  8  1  0  0  0
  8  9  2  0  0  0
  9 10  1  0  0  0
 10  1  1  0  0  0
  1  2  1  0  0  0
  2  3  1  0  0  0
  3 18  1  0  0  0
 18 19  2  0  0  0
 18 20  2  0  0  0
 18 21  1  0  0  0
 21 22  2  0  0  0
 22 23  1  0  0  0
 23 24  2  0  0  0
 24 25  1  0  0  0
 25 26  2  0  0  0
 26 27  1  0  0  0
 27 28  1  0  0  0
 27 29  1  0  0  0
 27 30  1  0  0  0
  3  4  1  0  0  0
  4  5  1  0  0  0
  5 14  1  0  0  0
 14 15  2  0  0  0
 14 16  1  0  0  0
 10 11  2  0  0  0
 11  6  1  0  0  0
  5  1  1  0  0  0
 26 21  1  0  0  0
 16 17  1  0  0  0
M  END
> <minimizedAffinity>
-7.18572

> <CNNscore>
0.1554840505

> <CNNaffinity>
5.6513862610

> <CNN_VS>
0.8787004352

> <CNNaffinity_variance>
0.1210654974

$$$$
[H]c1c([H])c([H])c(C([H])([H])n2c([H])nc(-c3c([H])c([H])c(F)c([H])c3[H])c2-c2nn3c([H])c(N([H])C(=O)C(C([H])([H])[H])(C([H])([H])[H])C([H])([H])[H])nc3c([H])c2[H])c([H])c1[H]


 36 40  0  0  0  0  0  0  0  0999 V2000
    2.0897  -52.4761  -24.5910 C   0  0  0  0  0  0  0  0  0  0  0  0
    1.6222  -52.2246  -25.8631 C   0  0  0  0  0  0  0  0  0  0  0  0
    2.7204  -51.8956  -26.6048 N   0  0  0  0  0  0  0  0  0  0  0  0
    3.8088  -51.9331  -25.8650 C   0  0  0  0  0  0  0  0  0  0  0  0
    3.4047  -52.2961  -24.6102 N   0  0  0  0  0  0  0  0  0  0  0  0
   -0.5184  -52.9104  -19.2999 C   0  0  0  0  0  0  0  0  0  0  0  0
    0.4808  -52.2315  -19.9594 C   0  0  0  0  0  0  0  0  0  0  0  0
    0.5344  -52.6680  -21.2541 N   0  0  0  0  0  0  0  0  0  0  0  0
    1.3151  -52.3209  -22.2547 N   0  0  0  0  0  0  0  0  0  0  0  0
    1.2255  -52.8648  -23.4797 C   0  0  0  0  0  0  0  0  0  0  0  0
    0.2560  -53.8258  -23.6448 C   0  0  0  0  0  0  0  0  0  0  0  0
   -0.5810  -54.2085  -22.6005 C   0  0  0  0  0  0  0  0  0  0  0  0
   -0.4159  -53.6002  -21.3900 C   0  0  0  0  0  0  0  0  0  0  0  0
   -1.0474  -53.7453  -20.2171 N   0  0  0  0  0  0  0  0  0  0  0  0
   -0.6546  -51.5646  -17.2398 C   0  0  0  0  0  0  0  0  0  0  0  0
   -0.0644  -50.6089  -17.8495 O   0  0  0  0  0  0  0  0  0  0  0  0
   -0.9056  -52.7624  -17.9547 N   0  0  0  0  0  0  0  0  0  0  0  0
   -1.3829  -53.5404  -17.4698 H   0  0  0  0  0  0  0  0  0  0  0  0
   -0.9726  -49.8571  -15.5793 C   0  0  0  0  0  0  0  0  0  0  0  0
   -1.0281  -51.3477  -15.8408 C   0  0  0  0  0  0  0  0  0  0  0  0
   -2.4332  -51.8132  -15.6050 C   0  0  0  0  0  0  0  0  0  0  0  0
   -0.0581  -52.0042  -14.8832 C   0  0  0  0  0  0  0  0  0  0  0  0
    0.2864  -52.2550  -26.4250 C   0  0  0  0  0  0  0  0  0  0  0  0
    0.0655  -52.8813  -27.6284 C   0  0  0  0  0  0  0  0  0  0  0  0
   -1.2014  -52.9414  -28.2053 C   0  0  0  0  0  0  0  0  0  0  0  0
   -2.2809  -52.3628  -27.5687 C   0  0  0  0  0  0  0  0  0  0  0  0
   -3.5179  -52.4232  -28.1353 F   0  0  0  0  0  0  0  0  0  0  0  0
   -2.0682  -51.7347  -26.3651 C   0  0  0  0  0  0  0  0  0  0  0  0
   -0.7984  -51.6846  -25.8051 C   0  0  0  0  0  0  0  0  0  0  0  0
    4.3128  -52.4529  -23.4855 C   0  0  0  0  0  0  0  0  0  0  0  0
    4.4638  -51.2024  -22.7215 C   0  0  0  0  0  0  0  0  0  0  0  0
    4.5212  -49.9702  -23.3192 C   0  0  0  0  0  0  0  0  0  0  0  0
    4.6577  -48.7971  -22.6264 C   0  0  0  0  0  0  0  0  0  0  0  0
    4.7420  -48.8610  -21.2488 C   0  0  0  0  0  0  0  0  0  0  0  0
    4.6870  -50.0914  -20.6194 C   0  0  0  0  0  0  0  0  0  0  0  0
    4.5503  -51.2511  -21.3331 C   0  0  0  0  0  0  0  0  0  0  0  0
 19 20  1  0  0  0
 20 21  1  0  0  0
 20 22  1  0  0  0
 20 15  1  0  0  0
 15 16  2  0  0  0
 15 17  1  0  0  0
 17  6  1  0  0  0
  6  7  2  0  0  0
  7  8  1  0  0  0
  8  9  1  0  0  0
  9 10  2  0  0  0
 10  1  1  0  0  0
  1  2  2  0  0  0
  2 23  1  0  0  0
 23 24  2  0  0  0
 24 25  1  0  0  0
 25 26  2  0  0  0
 26 27  1  0  0  0
 26 28  1  0  0  0
 28 29  2  0  0  0
  2  3  1  0  0  0
  3  4  2  0  0  0
  4  5  1  0  0  0
  5 30  1  0  0  0
 30 31  1  0  0  0
 31 32  2  0  0  0
 32 33  1  0  0  0
 33 34  2  0  0  0
 34 35  1  0  0  0
 35 36  2  0  0  0
 10 11  1  0  0  0
 11 12  2  0  0  0
 12 13  1  0  0  0
 13 14  2  0  0  0
 14  6  1  0  0  0
 13  8  1  0  0  0
  5  1  1  0  0  0
 36 31  1  0  0  0
 29 23  1  0  0  0
 17 18  1  0  0  0
M  END
> <minimizedAffinity>
-9.03744

> <CNNscore>
0.6444020271

> <CNNaffinity>
7.6361784935

> <CNN_VS>
4.9207687378

> <CNNaffinity_variance>
0.2321526557

$$$$
[H]c1c([H])c([H])c(C([H])([H])n2c([H])nc(-c3c([H])c([H])c(F)c([H])c3[H])c2-c2nn3c([H])c(N([H])C(=O)C(C([H])([H])[H])(C([H])([H])[H])C([H])([H])[H])nc3c([H])c2[H])c([H])c1[H]


 36 40  0  0  0  0  0  0  0  0999 V2000
    1.9855  -52.6101  -24.2977 C   0  0  0  0  0  0  0  0  0  0  0  0
    3.0569  -51.7472  -24.2101 C   0  0  0  0  0  0  0  0  0  0  0  0
    3.6673  -51.7869  -25.4308 N   0  0  0  0  0  0  0  0  0  0  0  0
    3.0360  -52.6122  -26.2392 C   0  0  0  0  0  0  0  0  0  0  0  0
    1.9883  -53.1209  -25.5229 N   0  0  0  0  0  0  0  0  0  0  0  0
   -0.5804  -52.8343  -18.9731 C   0  0  0  0  0  0  0  0  0  0  0  0
    0.5545  -52.3827  -19.6072 C   0  0  0  0  0  0  0  0  0  0  0  0
    0.4753  -52.6961  -20.9358 N   0  0  0  0  0  0  0  0  0  0  0  0
    1.3077  -52.4744  -21.9303 N   0  0  0  0  0  0  0  0  0  0  0  0
    1.0630  -52.8601  -23.1935 C   0  0  0  0  0  0  0  0  0  0  0  0
   -0.1278  -53.5144  -23.4057 C   0  0  0  0  0  0  0  0  0  0  0  0
   -1.0234  -53.7596  -22.3687 C   0  0  0  0  0  0  0  0  0  0  0  0
   -0.6889  -53.3304  -21.1171 C   0  0  0  0  0  0  0  0  0  0  0  0
   -1.3221  -53.4131  -19.9390 N   0  0  0  0  0  0  0  0  0  0  0  0
   -0.6930  -51.5030  -16.9022 C   0  0  0  0  0  0  0  0  0  0  0  0
   -0.2093  -50.5070  -17.5405 O   0  0  0  0  0  0  0  0  0  0  0  0
   -0.8986  -52.7153  -17.6069 N   0  0  0  0  0  0  0  0  0  0  0  0
   -1.2898  -53.5259  -17.0989 H   0  0  0  0  0  0  0  0  0  0  0  0
   -0.8399  -49.8404  -15.1735 C   0  0  0  0  0  0  0  0  0  0  0  0
   -0.9994  -51.3142  -15.4829 C   0  0  0  0  0  0  0  0  0  0  0  0
   -2.4212  -51.7001  -15.2073 C   0  0  0  0  0  0  0  0  0  0  0  0
   -0.0376  -52.0638  -14.5874 C   0  0  0  0  0  0  0  0  0  0  0  0
    3.5482  -50.9244  -23.1225 C   0  0  0  0  0  0  0  0  0  0  0  0
    3.0514  -49.6548  -22.9480 C   0  0  0  0  0  0  0  0  0  0  0  0
    3.4882  -48.8290  -21.9143 C   0  0  0  0  0  0  0  0  0  0  0  0
    4.4467  -49.2769  -21.0275 C   0  0  0  0  0  0  0  0  0  0  0  0
    4.8718  -48.4672  -20.0183 F   0  0  0  0  0  0  0  0  0  0  0  0
    4.9484  -50.5451  -21.1954 C   0  0  0  0  0  0  0  0  0  0  0  0
    4.5011  -51.3542  -22.2316 C   0  0  0  0  0  0  0  0  0  0  0  0
    1.0359  -54.0795  -26.0594 C   0  0  0  0  0  0  0  0  0  0  0  0
    0.2145  -53.4965  -27.1344 C   0  0  0  0  0  0  0  0  0  0  0  0
    0.6048  -53.4949  -28.4484 C   0  0  0  0  0  0  0  0  0  0  0  0
   -0.1460  -52.9614  -29.4616 C   0  0  0  0  0  0  0  0  0  0  0  0
   -1.3638  -52.3938  -29.1398 C   0  0  0  0  0  0  0  0  0  0  0  0
   -1.7824  -52.3814  -27.8216 C   0  0  0  0  0  0  0  0  0  0  0  0
   -1.0146  -52.9210  -26.8254 C   0  0  0  0  0  0  0  0  0  0  0  0
 19 20  1  0  0  0
 20 21  1  0  0  0
 20 22  1  0  0  0
 20 15  1  0  0  0
 15 16  2  0  0  0
 15 17  1  0  0  0
 17  6  1  0  0  0
  6  7  2  0  0  0
  7  8  1  0  0  0
  8  9  1  0  0  0
  9 10  2  0  0  0
 10  1  1  0  0  0
  1  2  2  0  0  0
  2 23  1  0  0  0
 23 24  2  0  0  0
 24 25  1  0  0  0
 25 26  2  0  0  0
 26 27  1  0  0  0
 26 28  1  0  0  0
 28 29  2  0  0  0
  2  3  1  0  0  0
  3  4  2  0  0  0
  4  5  1  0  0  0
  5 30  1  0  0  0
 30 31  1  0  0  0
 31 32  2  0  0  0
 32 33  1  0  0  0
 33 34  2  0  0  0
 34 35  1  0  0  0
 35 36  2  0  0  0
 10 11  1  0  0  0
 11 12  2  0  0  0
 12 13  1  0  0  0
 13 14  2  0  0  0
 14  6  1  0  0  0
 13  8  1  0  0  0
  5  1  1  0  0  0
 36 31  1  0  0  0
 29 23  1  0  0  0
 17 18  1  0  0  0
M  END
> <minimizedAffinity>
-9.17284

> <CNNscore>
0.5678201318

> <CNNaffinity>
7.4802222252

> <CNN_VS>
4.2474207878

> <CNNaffinity_variance>
0.1228783876

$$$$
[H]c1c([H])c([H])c(C([H])([H])n2c([H])nc(-c3c([H])c([H])c(F)c([H])c3[H])c2-c2nn3c([H])c(N([H])C(=O)C(C([H])([H])[H])(C([H])([H])[H])C([H])([H])[H])nc3c([H])c2[H])c([H])c1[H]


 36 40  0  0  0  0  0  0  0  0999 V2000
    0.5176  -51.1301  -18.1306 C   0  0  0  0  0  0  0  0  0  0  0  0
    1.3751  -50.0514  -18.1633 C   0  0  0  0  0  0  0  0  0  0  0  0
    1.4600  -49.6045  -16.8759 N   0  0  0  0  0  0  0  0  0  0  0  0
    0.7140  -50.3402  -16.0787 C   0  0  0  0  0  0  0  0  0  0  0  0
    0.1301  -51.2892  -16.8711 N   0  0  0  0  0  0  0  0  0  0  0  0
    0.2553  -53.3680  -23.5995 C   0  0  0  0  0  0  0  0  0  0  0  0
    0.9371  -52.4428  -22.8424 C   0  0  0  0  0  0  0  0  0  0  0  0
    0.4374  -52.4556  -21.5697 N   0  0  0  0  0  0  0  0  0  0  0  0
    0.7624  -51.7568  -20.5033 N   0  0  0  0  0  0  0  0  0  0  0  0
    0.1536  -51.9033  -19.3149 C   0  0  0  0  0  0  0  0  0  0  0  0
   -0.8508  -52.8410  -19.2620 C   0  0  0  0  0  0  0  0  0  0  0  0
   -1.2112  -53.5917  -20.3774 C   0  0  0  0  0  0  0  0  0  0  0  0
   -0.5360  -53.3734  -21.5432 C   0  0  0  0  0  0  0  0  0  0  0  0
   -0.6449  -53.9207  -22.7615 N   0  0  0  0  0  0  0  0  0  0  0  0
   -0.2154  -52.9618  -25.9843 C   0  0  0  0  0  0  0  0  0  0  0  0
   -1.0164  -52.0253  -25.6456 O   0  0  0  0  0  0  0  0  0  0  0  0
    0.4570  -53.6727  -24.9590 N   0  0  0  0  0  0  0  0  0  0  0  0
    1.1071  -54.4313  -25.2236 H   0  0  0  0  0  0  0  0  0  0  0  0
    1.1969  -52.5096  -27.8752 C   0  0  0  0  0  0  0  0  0  0  0  0
   -0.0528  -53.2303  -27.4144 C   0  0  0  0  0  0  0  0  0  0  0  0
    0.1413  -54.6987  -27.6437 C   0  0  0  0  0  0  0  0  0  0  0  0
   -1.2056  -52.6890  -28.2310 C   0  0  0  0  0  0  0  0  0  0  0  0
    2.0901  -49.4184  -19.2538 C   0  0  0  0  0  0  0  0  0  0  0  0
    3.4171  -49.7101  -19.4612 C   0  0  0  0  0  0  0  0  0  0  0  0
    4.1445  -49.1314  -20.4991 C   0  0  0  0  0  0  0  0  0  0  0  0
    3.5365  -48.2367  -21.3566 C   0  0  0  0  0  0  0  0  0  0  0  0
    4.2504  -47.6726  -22.3701 F   0  0  0  0  0  0  0  0  0  0  0  0
    2.2099  -47.9398  -21.1558 C   0  0  0  0  0  0  0  0  0  0  0  0
    1.5007  -48.5262  -20.1159 C   0  0  0  0  0  0  0  0  0  0  0  0
   -0.7776  -52.3088  -16.3705 C   0  0  0  0  0  0  0  0  0  0  0  0
   -2.1074  -51.7568  -16.0585 C   0  0  0  0  0  0  0  0  0  0  0  0
   -2.2809  -50.5798  -15.3778 C   0  0  0  0  0  0  0  0  0  0  0  0
   -3.5078  -50.0490  -15.0817 C   0  0  0  0  0  0  0  0  0  0  0  0
   -4.6319  -50.7395  -15.4925 C   0  0  0  0  0  0  0  0  0  0  0  0
   -4.4861  -51.9301  -16.1811 C   0  0  0  0  0  0  0  0  0  0  0  0
   -3.2489  -52.4413  -16.4658 C   0  0  0  0  0  0  0  0  0  0  0  0
 19 20  1  0  0  0
 20 21  1  0  0  0
 20 22  1  0  0  0
 20 15  1  0  0  0
 15 16  2  0  0  0
 15 17  1  0  0  0
 17  6  1  0  0  0
  6  7  2  0  0  0
  7  8  1  0  0  0
  8  9  1  0  0  0
  9 10  2  0  0  0
 10  1  1  0  0  0
  1  2  2  0  0  0
  2 23  1  0  0  0
 23 24  2  0  0  0
 24 25  1  0  0  0
 25 26  2  0  0  0
 26 27  1  0  0  0
 26 28  1  0  0  0
 28 29  2  0  0  0
  2  3  1  0  0  0
  3  4  2  0  0  0
  4  5  1  0  0  0
  5 30  1  0  0  0
 30 31  1  0  0  0
 31 32  2  0  0  0
 32 33  1  0  0  0
 33 34  2  0  0  0
 34 35  1  0  0  0
 35 36  2  0  0  0
 10 11  1  0  0  0
 11 12  2  0  0  0
 12 13  1  0  0  0
 13 14  2  0  0  0
 14  6  1  0  0  0
 13  8  1  0  0  0
  5  1  1  0  0  0
 36 31  1  0  0  0
 29 23  1  0  0  0
 17 18  1  0  0  0
M  END
> <minimizedAffinity>
-9.04097

> <CNNscore>
0.4837463200

> <CNNaffinity>
7.3737535477

> <CNN_VS>
3.5670261383

> <CNNaffinity_variance>
0.2409991473

$$$$
[H]c1c([H])c([H])c(C([H])([H])n2c([H])nc(-c3c([H])c([H])c(F)c([H])c3[H])c2-c2nn3c([H])c(N([H])C(=O)C(C([H])([H])[H])(C([H])([H])[H])C([H])([H])[H])nc3c([H])c2[H])c([H])c1[H]


 36 40  0  0  0  0  0  0  0  0999 V2000
    4.9625  -47.5328  -21.8640 C   0  0  0  0  0  0  0  0  0  0  0  0
    4.9036  -46.8004  -23.0303 C   0  0  0  0  0  0  0  0  0  0  0  0
    5.7541  -45.7473  -22.8517 N   0  0  0  0  0  0  0  0  0  0  0  0
    6.3153  -45.8001  -21.6619 C   0  0  0  0  0  0  0  0  0  0  0  0
    5.8148  -46.9176  -21.0534 N   0  0  0  0  0  0  0  0  0  0  0  0
    1.4919  -51.7221  -19.5422 C   0  0  0  0  0  0  0  0  0  0  0  0
    2.0179  -50.4803  -19.2676 C   0  0  0  0  0  0  0  0  0  0  0  0
    2.7867  -50.0800  -20.3251 N   0  0  0  0  0  0  0  0  0  0  0  0
    3.4837  -48.9819  -20.5240 N   0  0  0  0  0  0  0  0  0  0  0  0
    4.1923  -48.7536  -21.6421 C   0  0  0  0  0  0  0  0  0  0  0  0
    4.1554  -49.7453  -22.5940 C   0  0  0  0  0  0  0  0  0  0  0  0
    3.4248  -50.9149  -22.4049 C   0  0  0  0  0  0  0  0  0  0  0  0
    2.7353  -51.0588  -21.2360 C   0  0  0  0  0  0  0  0  0  0  0  0
    1.9582  -52.0440  -20.7658 N   0  0  0  0  0  0  0  0  0  0  0  0
   -0.7617  -52.3289  -18.7505 C   0  0  0  0  0  0  0  0  0  0  0  0
   -1.2538  -51.4621  -19.5504 O   0  0  0  0  0  0  0  0  0  0  0  0
    0.6460  -52.4907  -18.7204 N   0  0  0  0  0  0  0  0  0  0  0  0
    1.0528  -53.1897  -18.0769 H   0  0  0  0  0  0  0  0  0  0  0  0
   -1.4546  -54.5623  -18.1970 C   0  0  0  0  0  0  0  0  0  0  0  0
   -1.6955  -53.0928  -17.9210 C   0  0  0  0  0  0  0  0  0  0  0  0
   -1.4225  -52.8375  -16.4695 C   0  0  0  0  0  0  0  0  0  0  0  0
   -3.1383  -52.8044  -18.2731 C   0  0  0  0  0  0  0  0  0  0  0  0
    4.1433  -46.9864  -24.2504 C   0  0  0  0  0  0  0  0  0  0  0  0
    4.1514  -48.2076  -24.8810 C   0  0  0  0  0  0  0  0  0  0  0  0
    3.4323  -48.4361  -26.0523 C   0  0  0  0  0  0  0  0  0  0  0  0
    2.6827  -47.4222  -26.6141 C   0  0  0  0  0  0  0  0  0  0  0  0
    1.9810  -47.6486  -27.7592 F   0  0  0  0  0  0  0  0  0  0  0  0
    2.6695  -46.1982  -25.9896 C   0  0  0  0  0  0  0  0  0  0  0  0
    3.3926  -45.9887  -24.8227 C   0  0  0  0  0  0  0  0  0  0  0  0
    6.1864  -47.3392  -19.7124 C   0  0  0  0  0  0  0  0  0  0  0  0
    5.2096  -46.8921  -18.7044 C   0  0  0  0  0  0  0  0  0  0  0  0
    5.3475  -47.1610  -17.3674 C   0  0  0  0  0  0  0  0  0  0  0  0
    4.4527  -46.7513  -16.4154 C   0  0  0  0  0  0  0  0  0  0  0  0
    3.3506  -46.0269  -16.8272 C   0  0  0  0  0  0  0  0  0  0  0  0
    3.1863  -45.7413  -18.1704 C   0  0  0  0  0  0  0  0  0  0  0  0
    4.0943  -46.1616  -19.1042 C   0  0  0  0  0  0  0  0  0  0  0  0
 19 20  1  0  0  0
 20 21  1  0  0  0
 20 22  1  0  0  0
 20 15  1  0  0  0
 15 16  2  0  0  0
 15 17  1  0  0  0
 17  6  1  0  0  0
  6  7  2  0  0  0
  7  8  1  0  0  0
  8  9  1  0  0  0
  9 10  2  0  0  0
 10  1  1  0  0  0
  1  2  2  0  0  0
  2 23  1  0  0  0
 23 24  2  0  0  0
 24 25  1  0  0  0
 25 26  2  0  0  0
 26 27  1  0  0  0
 26 28  1  0  0  0
 28 29  2  0  0  0
  2  3  1  0  0  0
  3  4  2  0  0  0
  4  5  1  0  0  0
  5 30  1  0  0  0
 30 31  1  0  0  0
 31 32  2  0  0  0
 32 33  1  0  0  0
 33 34  2  0  0  0
 34 35  1  0  0  0
 35 36  2  0  0  0
 10 11  1  0  0  0
 11 12  2  0  0  0
 12 13  1  0  0  0
 13 14  2  0  0  0
 14  6  1  0  0  0
 13  8  1  0  0  0
  5  1  1  0  0  0
 36 31  1  0  0  0
 29 23  1  0  0  0
 17 18  1  0  0  0
M  END
> <minimizedAffinity>
2.71879

> <CNNscore>
0.3952676058

> <CNNaffinity>
6.4478592873

> <CNN_VS>
2.5486299992

> <CNNaffinity_variance>
1.7074658871

$$$$
[H]c1c([H])c([H])c(C([H])([H])n2c([H])nc(-c3c([H])c([H])c(F)c([H])c3[H])c2-c2nn3c([H])c(N([H])C(=O)C(C([H])([H])[H])(C([H])([H])[H])C([H])([H])[H])nc3c([H])c2[H])c([H])c1[H]


 36 40  0  0  0  0  0  0  0  0999 V2000
    0.7856  -50.1752  -18.0688 C   0  0  0  0  0  0  0  0  0  0  0  0
    1.8756  -49.3347  -18.1439 C   0  0  0  0  0  0  0  0  0  0  0  0
    1.8550  -48.5953  -16.9962 N   0  0  0  0  0  0  0  0  0  0  0  0
    0.8303  -48.9354  -16.2429 C   0  0  0  0  0  0  0  0  0  0  0  0
    0.1692  -49.9218  -16.9209 N   0  0  0  0  0  0  0  0  0  0  0  0
   -0.3031  -52.7920  -23.2605 C   0  0  0  0  0  0  0  0  0  0  0  0
    0.0692  -51.5837  -22.7167 C   0  0  0  0  0  0  0  0  0  0  0  0
    0.1297  -51.7088  -21.3564 N   0  0  0  0  0  0  0  0  0  0  0  0
    0.4352  -50.8384  -20.4182 N   0  0  0  0  0  0  0  0  0  0  0  0
    0.4424  -51.1407  -19.1094 C   0  0  0  0  0  0  0  0  0  0  0  0
    0.1070  -52.4345  -18.7862 C   0  0  0  0  0  0  0  0  0  0  0  0
   -0.2195  -53.3719  -19.7620 C   0  0  0  0  0  0  0  0  0  0  0  0
   -0.1998  -52.9730  -21.0670 C   0  0  0  0  0  0  0  0  0  0  0  0
   -0.4594  -53.6226  -22.2099 N   0  0  0  0  0  0  0  0  0  0  0  0
    0.5892  -53.0006  -25.5483 C   0  0  0  0  0  0  0  0  0  0  0  0
    1.7333  -52.6325  -25.1137 O   0  0  0  0  0  0  0  0  0  0  0  0
   -0.4807  -53.0951  -24.6236 N   0  0  0  0  0  0  0  0  0  0  0  0
   -1.4094  -53.3926  -24.9661 H   0  0  0  0  0  0  0  0  0  0  0  0
    0.1882  -54.7797  -27.1130 C   0  0  0  0  0  0  0  0  0  0  0  0
    0.4706  -53.2981  -26.9770 C   0  0  0  0  0  0  0  0  0  0  0  0
   -0.6837  -52.5448  -27.5657 C   0  0  0  0  0  0  0  0  0  0  0  0
    1.7550  -53.0190  -27.7261 C   0  0  0  0  0  0  0  0  0  0  0  0
    2.8936  -49.1615  -19.1611 C   0  0  0  0  0  0  0  0  0  0  0  0
    3.9476  -50.0411  -19.2296 C   0  0  0  0  0  0  0  0  0  0  0  0
    4.9470  -49.9189  -20.1927 C   0  0  0  0  0  0  0  0  0  0  0  0
    4.8986  -48.8933  -21.1153 C   0  0  0  0  0  0  0  0  0  0  0  0
    5.8770  -48.7764  -22.0554 F   0  0  0  0  0  0  0  0  0  0  0  0
    3.8479  -48.0097  -21.0534 C   0  0  0  0  0  0  0  0  0  0  0  0
    2.8608  -48.1470  -20.0864 C   0  0  0  0  0  0  0  0  0  0  0  0
   -1.0311  -50.5751  -16.4243 C   0  0  0  0  0  0  0  0  0  0  0  0
   -0.7926  -51.2660  -15.1453 C   0  0  0  0  0  0  0  0  0  0  0  0
   -1.6774  -51.2174  -14.0995 C   0  0  0  0  0  0  0  0  0  0  0  0
   -1.4751  -51.8554  -12.9050 C   0  0  0  0  0  0  0  0  0  0  0  0
   -0.3145  -52.5880  -12.7469 C   0  0  0  0  0  0  0  0  0  0  0  0
    0.5961  -52.6541  -13.7858 C   0  0  0  0  0  0  0  0  0  0  0  0
    0.3724  -52.0077  -14.9713 C   0  0  0  0  0  0  0  0  0  0  0  0
 19 20  1  0  0  0
 20 21  1  0  0  0
 20 22  1  0  0  0
 20 15  1  0  0  0
 15 16  2  0  0  0
 15 17  1  0  0  0
 17  6  1  0  0  0
  6  7  2  0  0  0
  7  8  1  0  0  0
  8  9  1  0  0  0
  9 10  2  0  0  0
 10  1  1  0  0  0
  1  2  2  0  0  0
  2 23  1  0  0  0
 23 24  2  0  0  0
 24 25  1  0  0  0
 25 26  2  0  0  0
 26 27  1  0  0  0
 26 28  1  0  0  0
 28 29  2  0  0  0
  2  3  1  0  0  0
  3  4  2  0  0  0
  4  5  1  0  0  0
  5 30  1  0  0  0
 30 31  1  0  0  0
 31 32  2  0  0  0
 32 33  1  0  0  0
 33 34  2  0  0  0
 34 35  1  0  0  0
 35 36  2  0  0  0
 10 11  1  0  0  0
 11 12  2  0  0  0
 12 13  1  0  0  0
 13 14  2  0  0  0
 14  6  1  0  0  0
 13  8  1  0  0  0
  5  1  1  0  0  0
 36 31  1  0  0  0
 29 23  1  0  0  0
 17 18  1  0  0  0
M  END
> <minimizedAffinity>
-7.28923

> <CNNscore>
0.3609247208

> <CNNaffinity>
7.2211747169

> <CNN_VS>
2.6063003540

> <CNNaffinity_variance>
0.1851007640

$$$$
[H]c1c([H])c([H])c(C([H])([H])n2c([H])nc(-c3c([H])c([H])c(F)c([H])c3[H])c2-c2nn3c([H])c(N([H])C(=O)C(C([H])([H])[H])(C([H])([H])[H])C([H])([H])[H])nc3c([H])c2[H])c([H])c1[H]


 36 40  0  0  0  0  0  0  0  0999 V2000
    0.9271  -50.5510  -16.3945 C   0  0  0  0  0  0  0  0  0  0  0  0
    0.1557  -49.9187  -15.4432 C   0  0  0  0  0  0  0  0  0  0  0  0
    1.0345  -49.4035  -14.5340 N   0  0  0  0  0  0  0  0  0  0  0  0
    2.2745  -49.6841  -14.8759 C   0  0  0  0  0  0  0  0  0  0  0  0
    2.1968  -50.4004  -16.0380 N   0  0  0  0  0  0  0  0  0  0  0  0
   -0.5288  -52.1516  -21.8995 C   0  0  0  0  0  0  0  0  0  0  0  0
    0.1844  -51.2025  -21.2033 C   0  0  0  0  0  0  0  0  0  0  0  0
    0.0786  -51.4610  -19.8648 N   0  0  0  0  0  0  0  0  0  0  0  0
    0.5793  -50.8389  -18.8191 N   0  0  0  0  0  0  0  0  0  0  0  0
    0.3677  -51.2397  -17.5546 C   0  0  0  0  0  0  0  0  0  0  0  0
   -0.4164  -52.3585  -17.3984 C   0  0  0  0  0  0  0  0  0  0  0  0
   -0.9563  -53.0324  -18.4901 C   0  0  0  0  0  0  0  0  0  0  0  0
   -0.6869  -52.5513  -19.7385 C   0  0  0  0  0  0  0  0  0  0  0  0
   -1.0511  -52.9653  -20.9598 N   0  0  0  0  0  0  0  0  0  0  0  0
    0.4011  -52.6335  -24.1304 C   0  0  0  0  0  0  0  0  0  0  0  0
    1.5268  -52.8912  -23.5830 O   0  0  0  0  0  0  0  0  0  0  0  0
   -0.6787  -52.2514  -23.2957 N   0  0  0  0  0  0  0  0  0  0  0  0
   -1.5929  -52.0416  -23.7296 H   0  0  0  0  0  0  0  0  0  0  0  0
    0.1989  -54.2265  -25.9180 C   0  0  0  0  0  0  0  0  0  0  0  0
    0.3126  -52.7531  -25.5870 C   0  0  0  0  0  0  0  0  0  0  0  0
   -0.9211  -52.0637  -26.0863 C   0  0  0  0  0  0  0  0  0  0  0  0
    1.5551  -52.2361  -26.2782 C   0  0  0  0  0  0  0  0  0  0  0  0
   -1.2795  -49.7661  -15.3088 C   0  0  0  0  0  0  0  0  0  0  0  0
   -1.8368  -48.5097  -15.3183 C   0  0  0  0  0  0  0  0  0  0  0  0
   -3.2109  -48.3130  -15.1978 C   0  0  0  0  0  0  0  0  0  0  0  0
   -4.0568  -49.3955  -15.0642 C   0  0  0  0  0  0  0  0  0  0  0  0
   -5.3995  -49.1999  -14.9465 F   0  0  0  0  0  0  0  0  0  0  0  0
   -3.5073  -50.6550  -15.0538 C   0  0  0  0  0  0  0  0  0  0  0  0
   -2.1353  -50.8320  -15.1749 C   0  0  0  0  0  0  0  0  0  0  0  0
    3.3584  -50.9064  -16.7513 C   0  0  0  0  0  0  0  0  0  0  0  0
    3.7500  -50.0223  -17.8627 C   0  0  0  0  0  0  0  0  0  0  0  0
    3.9184  -48.6704  -17.7113 C   0  0  0  0  0  0  0  0  0  0  0  0
    4.2852  -47.8332  -18.7308 C   0  0  0  0  0  0  0  0  0  0  0  0
    4.4967  -48.3832  -19.9804 C   0  0  0  0  0  0  0  0  0  0  0  0
    4.3337  -49.7447  -20.1617 C   0  0  0  0  0  0  0  0  0  0  0  0
    3.9663  -50.5621  -19.1273 C   0  0  0  0  0  0  0  0  0  0  0  0
 19 20  1  0  0  0
 20 21  1  0  0  0
 20 22  1  0  0  0
 20 15  1  0  0  0
 15 16  2  0  0  0
 15 17  1  0  0  0
 17  6  1  0  0  0
  6  7  2  0  0  0
  7  8  1  0  0  0
  8  9  1  0  0  0
  9 10  2  0  0  0
 10  1  1  0  0  0
  1  2  2  0  0  0
  2 23  1  0  0  0
 23 24  2  0  0  0
 24 25  1  0  0  0
 25 26  2  0  0  0
 26 27  1  0  0  0
 26 28  1  0  0  0
 28 29  2  0  0  0
  2  3  1  0  0  0
  3  4  2  0  0  0
  4  5  1  0  0  0
  5 30  1  0  0  0
 30 31  1  0  0  0
 31 32  2  0  0  0
 32 33  1  0  0  0
 33 34  2  0  0  0
 34 35  1  0  0  0
 35 36  2  0  0  0
 10 11  1  0  0  0
 11 12  2  0  0  0
 12 13  1  0  0  0
 13 14  2  0  0  0
 14  6  1  0  0  0
 13  8  1  0  0  0
  5  1  1  0  0  0
 36 31  1  0  0  0
 29 23  1  0  0  0
 17 18  1  0  0  0
M  END
> <minimizedAffinity>
-7.87426

> <CNNscore>
0.3010098338

> <CNNaffinity>
6.8375740051

> <CNN_VS>
2.0581769943

> <CNNaffinity_variance>
0.1315265447

$$$$
[H]c1c([H])c([H])c(C([H])([H])n2c([H])nc(-c3c([H])c([H])c(F)c([H])c3[H])c2-c2nn3c([H])c(N([H])C(=O)C(C([H])([H])[H])(C([H])([H])[H])C([H])([H])[H])nc3c([H])c2[H])c([H])c1[H]


 36 40  0  0  0  0  0  0  0  0999 V2000
    0.8027  -52.8215  -23.6138 C   0  0  0  0  0  0  0  0  0  0  0  0
    0.1798  -52.6535  -22.3957 C   0  0  0  0  0  0  0  0  0  0  0  0
   -0.8069  -53.5962  -22.3492 N   0  0  0  0  0  0  0  0  0  0  0  0
   -0.8162  -54.3136  -23.4530 C   0  0  0  0  0  0  0  0  0  0  0  0
    0.1916  -53.8224  -24.2357 N   0  0  0  0  0  0  0  0  0  0  0  0
    4.1615  -48.7579  -26.2954 C   0  0  0  0  0  0  0  0  0  0  0  0
    2.8602  -49.1976  -26.2088 C   0  0  0  0  0  0  0  0  0  0  0  0
    2.8044  -50.2505  -25.3381 N   0  0  0  0  0  0  0  0  0  0  0  0
    1.7939  -50.9914  -24.9368 N   0  0  0  0  0  0  0  0  0  0  0  0
    1.9255  -52.0021  -24.0619 C   0  0  0  0  0  0  0  0  0  0  0  0
    3.1971  -52.2334  -23.5924 C   0  0  0  0  0  0  0  0  0  0  0  0
    4.2807  -51.4622  -24.0030 C   0  0  0  0  0  0  0  0  0  0  0  0
    4.0505  -50.4559  -24.8958 C   0  0  0  0  0  0  0  0  0  0  0  0
    4.8645  -49.5600  -25.4706 N   0  0  0  0  0  0  0  0  0  0  0  0
    4.7994  -47.8172  -28.4822 C   0  0  0  0  0  0  0  0  0  0  0  0
    4.4711  -48.9238  -29.0309 O   0  0  0  0  0  0  0  0  0  0  0  0
    4.6523  -47.6955  -27.0778 N   0  0  0  0  0  0  0  0  0  0  0  0
    4.9148  -46.8041  -26.6256 H   0  0  0  0  0  0  0  0  0  0  0  0
    4.1339  -45.8678  -29.7196 C   0  0  0  0  0  0  0  0  0  0  0  0
    5.3058  -46.7536  -29.3517 C   0  0  0  0  0  0  0  0  0  0  0  0
    6.3101  -45.9203  -28.6144 C   0  0  0  0  0  0  0  0  0  0  0  0
    5.8765  -47.2963  -30.6434 C   0  0  0  0  0  0  0  0  0  0  0  0
    0.4113  -51.7177  -21.3132 C   0  0  0  0  0  0  0  0  0  0  0  0
    0.3776  -52.1570  -20.0113 C   0  0  0  0  0  0  0  0  0  0  0  0
    0.5994  -51.2966  -18.9381 C   0  0  0  0  0  0  0  0  0  0  0  0
    0.8627  -49.9605  -19.1640 C   0  0  0  0  0  0  0  0  0  0  0  0
    1.0790  -49.1220  -18.1128 F   0  0  0  0  0  0  0  0  0  0  0  0
    0.8982  -49.5135  -20.4630 C   0  0  0  0  0  0  0  0  0  0  0  0
    0.6745  -50.3856  -21.5203 C   0  0  0  0  0  0  0  0  0  0  0  0
    0.5174  -54.3468  -25.5522 C   0  0  0  0  0  0  0  0  0  0  0  0
   -0.1963  -53.6290  -26.6225 C   0  0  0  0  0  0  0  0  0  0  0  0
   -1.2722  -52.8150  -26.3803 C   0  0  0  0  0  0  0  0  0  0  0  0
   -1.9459  -52.1371  -27.3608 C   0  0  0  0  0  0  0  0  0  0  0  0
   -1.5162  -52.2830  -28.6658 C   0  0  0  0  0  0  0  0  0  0  0  0
   -0.4330  -53.0985  -28.9389 C   0  0  0  0  0  0  0  0  0  0  0  0
    0.2251  -53.7664  -27.9420 C   0  0  0  0  0  0  0  0  0  0  0  0
 19 20  1  0  0  0
 20 21  1  0  0  0
 20 22  1  0  0  0
 20 15  1  0  0  0
 15 16  2  0  0  0
 15 17  1  0  0  0
 17  6  1  0  0  0
  6  7  2  0  0  0
  7  8  1  0  0  0
  8  9  1  0  0  0
  9 10  2  0  0  0
 10  1  1  0  0  0
  1  2  2  0  0  0
  2 23  1  0  0  0
 23 24  2  0  0  0
 24 25  1  0  0  0
 25 26  2  0  0  0
 26 27  1  0  0  0
 26 28  1  0  0  0
 28 29  2  0  0  0
  2  3  1  0  0  0
  3  4  2  0  0  0
  4  5  1  0  0  0
  5 30  1  0  0  0
 30 31  1  0  0  0
 31 32  2  0  0  0
 32 33  1  0  0  0
 33 34  2  0  0  0
 34 35  1  0  0  0
 35 36  2  0  0  0
 10 11  1  0  0  0
 11 12  2  0  0  0
 12 13  1  0  0  0
 13 14  2  0  0  0
 14  6  1  0  0  0
 13  8  1  0  0  0
  5  1  1  0  0  0
 36 31  1  0  0  0
 29 23  1  0  0  0
 17 18  1  0  0  0
M  END
> <minimizedAffinity>
-8.33769

> <CNNscore>
0.2716667652

> <CNNaffinity>
7.1541686058

> <CNN_VS>
1.9435498714

> <CNNaffinity_variance>
0.2874878347

$$$$
[H]c1c([H])c([H])c(C([H])([H])n2c([H])nc(-c3c([H])c([H])c(F)c([H])c3[H])c2-c2nn3c([H])c(N([H])C(=O)C(C([H])([H])[H])(C([H])([H])[H])C([H])([H])[H])nc3c([H])c2[H])c([H])c1[H]


 36 40  0  0  0  0  0  0  0  0999 V2000
   -0.8729  -52.6582  -27.4409 C   0  0  0  0  0  0  0  0  0  0  0  0
   -1.3898  -52.6950  -28.7182 C   0  0  0  0  0  0  0  0  0  0  0  0
   -2.6514  -53.2024  -28.5945 N   0  0  0  0  0  0  0  0  0  0  0  0
   -2.9227  -53.4706  -27.3344 C   0  0  0  0  0  0  0  0  0  0  0  0
   -1.8067  -53.1277  -26.6227 N   0  0  0  0  0  0  0  0  0  0  0  0
    3.7277  -49.3585  -25.7282 C   0  0  0  0  0  0  0  0  0  0  0  0
    2.3566  -49.3243  -25.8421 C   0  0  0  0  0  0  0  0  0  0  0  0
    1.9231  -50.5182  -26.3483 N   0  0  0  0  0  0  0  0  0  0  0  0
    0.7137  -50.9526  -26.6309 N   0  0  0  0  0  0  0  0  0  0  0  0
    0.4702  -52.1752  -27.1313 C   0  0  0  0  0  0  0  0  0  0  0  0
    1.5706  -52.9727  -27.3406 C   0  0  0  0  0  0  0  0  0  0  0  0
    2.8590  -52.5340  -27.0488 C   0  0  0  0  0  0  0  0  0  0  0  0
    3.0091  -51.2754  -26.5431 C   0  0  0  0  0  0  0  0  0  0  0  0
    4.0917  -50.5790  -26.1708 N   0  0  0  0  0  0  0  0  0  0  0  0
    4.5909  -47.9766  -23.8792 C   0  0  0  0  0  0  0  0  0  0  0  0
    3.8229  -48.6080  -23.0760 O   0  0  0  0  0  0  0  0  0  0  0  0
    4.5694  -48.3366  -25.2498 N   0  0  0  0  0  0  0  0  0  0  0  0
    5.1875  -47.8318  -25.9065 H   0  0  0  0  0  0  0  0  0  0  0  0
    4.5270  -45.8753  -22.7153 C   0  0  0  0  0  0  0  0  0  0  0  0
    5.4390  -46.9231  -23.3184 C   0  0  0  0  0  0  0  0  0  0  0  0
    6.2989  -47.4816  -22.2252 C   0  0  0  0  0  0  0  0  0  0  0  0
    6.2687  -46.2338  -24.3793 C   0  0  0  0  0  0  0  0  0  0  0  0
   -0.8261  -52.3193  -29.9997 C   0  0  0  0  0  0  0  0  0  0  0  0
   -0.9120  -51.0162  -30.4282 C   0  0  0  0  0  0  0  0  0  0  0  0
   -0.3805  -50.6063  -31.6492 C   0  0  0  0  0  0  0  0  0  0  0  0
    0.2552  -51.5169  -32.4690 C   0  0  0  0  0  0  0  0  0  0  0  0
    0.7735  -51.1131  -33.6620 F   0  0  0  0  0  0  0  0  0  0  0  0
    0.3451  -52.8218  -32.0476 C   0  0  0  0  0  0  0  0  0  0  0  0
   -0.1906  -53.2123  -30.8274 C   0  0  0  0  0  0  0  0  0  0  0  0
   -1.6963  -53.2703  -25.1799 C   0  0  0  0  0  0  0  0  0  0  0  0
   -0.3019  -53.1503  -24.7201 C   0  0  0  0  0  0  0  0  0  0  0  0
    0.6719  -54.0528  -25.0607 C   0  0  0  0  0  0  0  0  0  0  0  0
    1.9734  -53.9563  -24.6464 C   0  0  0  0  0  0  0  0  0  0  0  0
    2.3224  -52.8898  -23.8405 C   0  0  0  0  0  0  0  0  0  0  0  0
    1.3597  -51.9640  -23.4811 C   0  0  0  0  0  0  0  0  0  0  0  0
    0.0645  -52.0812  -23.9075 C   0  0  0  0  0  0  0  0  0  0  0  0
 19 20  1  0  0  0
 20 21  1  0  0  0
 20 22  1  0  0  0
 20 15  1  0  0  0
 15 16  2  0  0  0
 15 17  1  0  0  0
 17  6  1  0  0  0
  6  7  2  0  0  0
  7  8  1  0  0  0
  8  9  1  0  0  0
  9 10  2  0  0  0
 10  1  1  0  0  0
  1  2  2  0  0  0
  2 23  1  0  0  0
 23 24  2  0  0  0
 24 25  1  0  0  0
 25 26  2  0  0  0
 26 27  1  0  0  0
 26 28  1  0  0  0
 28 29  2  0  0  0
  2  3  1  0  0  0
  3  4  2  0  0  0
  4  5  1  0  0  0
  5 30  1  0  0  0
 30 31  1  0  0  0
 31 32  2  0  0  0
 32 33  1  0  0  0
 33 34  2  0  0  0
 34 35  1  0  0  0
 35 36  2  0  0  0
 10 11  1  0  0  0
 11 12  2  0  0  0
 12 13  1  0  0  0
 13 14  2  0  0  0
 14  6  1  0  0  0
 13  8  1  0  0  0
  5  1  1  0  0  0
 36 31  1  0  0  0
 29 23  1  0  0  0
 17 18  1  0  0  0
M  END
> <minimizedAffinity>
21.37867

> <CNNscore>
0.2576445043

> <CNNaffinity>
6.3732161522

> <CNN_VS>
1.6420241594

> <CNNaffinity_variance>
0.3421096504

$$$$
[H]c1c([H])c([H])c(C([H])([H])n2c([H])nc(-c3c([H])c([H])c(F)c([H])c3[H])c2-c2nn3c([H])c(N([H])C(=O)C(C([H])([H])[H])(C([H])([H])[H])C([H])([H])[H])nc3c([H])c2[H])c([H])c1[H]


 36 40  0  0  0  0  0  0  0  0999 V2000
    2.0601  -51.5247  -21.9204 C   0  0  0  0  0  0  0  0  0  0  0  0
    0.8419  -52.1166  -22.1766 C   0  0  0  0  0  0  0  0  0  0  0  0
    0.2899  -52.3760  -20.9550 N   0  0  0  0  0  0  0  0  0  0  0  0
    1.0927  -51.9809  -19.9892 C   0  0  0  0  0  0  0  0  0  0  0  0
    2.1945  -51.4513  -20.6018 N   0  0  0  0  0  0  0  0  0  0  0  0
    4.3897  -49.7588  -27.0624 C   0  0  0  0  0  0  0  0  0  0  0  0
    3.1944  -50.1259  -26.4873 C   0  0  0  0  0  0  0  0  0  0  0  0
    3.4098  -50.4311  -25.1719 N   0  0  0  0  0  0  0  0  0  0  0  0
    2.5845  -50.8286  -24.2275 N   0  0  0  0  0  0  0  0  0  0  0  0
    2.9774  -51.0874  -22.9692 C   0  0  0  0  0  0  0  0  0  0  0  0
    4.3159  -50.9138  -22.7062 C   0  0  0  0  0  0  0  0  0  0  0  0
    5.2069  -50.4939  -23.6898 C   0  0  0  0  0  0  0  0  0  0  0  0
    4.7160  -50.2550  -24.9406 C   0  0  0  0  0  0  0  0  0  0  0  0
    5.3035  -49.8515  -26.0753 N   0  0  0  0  0  0  0  0  0  0  0  0
    5.1961  -48.1178  -28.7149 C   0  0  0  0  0  0  0  0  0  0  0  0
    5.5278  -47.3435  -27.7537 O   0  0  0  0  0  0  0  0  0  0  0  0
    4.6095  -49.3682  -28.3968 N   0  0  0  0  0  0  0  0  0  0  0  0
    4.3386  -50.0010  -29.1677 H   0  0  0  0  0  0  0  0  0  0  0  0
    6.2119  -48.7416  -30.8013 C   0  0  0  0  0  0  0  0  0  0  0  0
    5.4488  -47.6508  -30.0794 C   0  0  0  0  0  0  0  0  0  0  0  0
    4.1514  -47.4323  -30.7973 C   0  0  0  0  0  0  0  0  0  0  0  0
    6.3136  -46.4097  -30.1064 C   0  0  0  0  0  0  0  0  0  0  0  0
    0.1754  -52.4570  -23.4180 C   0  0  0  0  0  0  0  0  0  0  0  0
   -0.0346  -51.4871  -24.3690 C   0  0  0  0  0  0  0  0  0  0  0  0
   -0.6654  -51.7671  -25.5793 C   0  0  0  0  0  0  0  0  0  0  0  0
   -1.1006  -53.0481  -25.8538 C   0  0  0  0  0  0  0  0  0  0  0  0
   -1.7170  -53.3186  -27.0378 F   0  0  0  0  0  0  0  0  0  0  0  0
   -0.8943  -54.0234  -24.9081 C   0  0  0  0  0  0  0  0  0  0  0  0
   -0.2638  -53.7259  -23.7071 C   0  0  0  0  0  0  0  0  0  0  0  0
    3.3285  -50.8968  -19.8803 C   0  0  0  0  0  0  0  0  0  0  0  0
    2.9027  -50.0199  -18.7758 C   0  0  0  0  0  0  0  0  0  0  0  0
    2.8853  -48.6531  -18.8781 C   0  0  0  0  0  0  0  0  0  0  0  0
    2.4897  -47.8220  -17.8645 C   0  0  0  0  0  0  0  0  0  0  0  0
    2.0861  -48.3944  -16.6736 C   0  0  0  0  0  0  0  0  0  0  0  0
    2.0938  -49.7712  -16.5426 C   0  0  0  0  0  0  0  0  0  0  0  0
    2.4936  -50.5822  -17.5700 C   0  0  0  0  0  0  0  0  0  0  0  0
 19 20  1  0  0  0
 20 21  1  0  0  0
 20 22  1  0  0  0
 20 15  1  0  0  0
 15 16  2  0  0  0
 15 17  1  0  0  0
 17  6  1  0  0  0
  6  7  2  0  0  0
  7  8  1  0  0  0
  8  9  1  0  0  0
  9 10  2  0  0  0
 10  1  1  0  0  0
  1  2  2  0  0  0
  2 23  1  0  0  0
 23 24  2  0  0  0
 24 25  1  0  0  0
 25 26  2  0  0  0
 26 27  1  0  0  0
 26 28  1  0  0  0
 28 29  2  0  0  0
  2  3  1  0  0  0
  3  4  2  0  0  0
  4  5  1  0  0  0
  5 30  1  0  0  0
 30 31  1  0  0  0
 31 32  2  0  0  0
 32 33  1  0  0  0
 33 34  2  0  0  0
 34 35  1  0  0  0
 35 36  2  0  0  0
 10 11  1  0  0  0
 11 12  2  0  0  0
 12 13  1  0  0  0
 13 14  2  0  0  0
 14  6  1  0  0  0
 13  8  1  0  0  0
  5  1  1  0  0  0
 36 31  1  0  0  0
 29 23  1  0  0  0
 17 18  1  0  0  0
M  END
> <minimizedAffinity>
-5.03168

> <CNNscore>
0.2572834492

> <CNNaffinity>
6.6553449631

> <CNN_VS>
1.7123100758

> <CNNaffinity_variance>
0.9956024885

$$$$
[H]c1nc(N([H])[H])c(OC([H])([H])C([H])([H])[H])c(N2C([H])([H])C([H])([H])N(C([H])(c3c([H])c([H])c(C(F)(F)F)c([H])c3[H])C([H])([H])N([H])[H])C([H])([H])C2([H])[H])n1


 33 35  0  0  0  0  0  0  0  0999 V2000
    1.7958  -52.1653  -24.5383 N   0  0  0  0  0  0  0  0  0  0  0  0
    1.7313  -50.7479  -24.8157 C   0  0  0  0  0  0  0  0  0  0  0  0
    2.3318  -50.1131  -23.5846 C   0  0  0  0  0  0  0  0  0  0  0  0
    3.8115  -50.1388  -23.7210 N   0  0  0  0  0  0  0  0  0  0  0  0
    4.1216  -51.4638  -24.2659 C   0  0  0  0  0  0  0  0  0  0  0  0
    3.1260  -52.5137  -23.9193 C   0  0  0  0  0  0  0  0  0  0  0  0
   -0.1068  -53.7021  -23.9979 C   0  0  0  0  0  0  0  0  0  0  0  0
   -0.8625  -54.8325  -24.3779 C   0  0  0  0  0  0  0  0  0  0  0  0
   -1.8878  -55.3320  -23.5418 N   0  0  0  0  0  0  0  0  0  0  0  0
   -0.6126  -55.4366  -25.5288 N   0  0  0  0  0  0  0  0  0  0  0  0
    0.3675  -54.9480  -26.3173 C   0  0  0  0  0  0  0  0  0  0  0  0
    1.0838  -53.8830  -25.9590 N   0  0  0  0  0  0  0  0  0  0  0  0
    0.8828  -53.1984  -24.7666 C   0  0  0  0  0  0  0  0  0  0  0  0
   -2.8099  -55.5999  -23.9791 H   0  0  0  0  0  0  0  0  0  0  0  0
   -1.7711  -55.4572  -22.4996 H   0  0  0  0  0  0  0  0  0  0  0  0
   -0.4717  -53.1606  -22.7751 O   0  0  0  0  0  0  0  0  0  0  0  0
   -0.7513  -53.7604  -20.4753 C   0  0  0  0  0  0  0  0  0  0  0  0
    0.2359  -53.4895  -21.5884 C   0  0  0  0  0  0  0  0  0  0  0  0
    4.3875  -50.0517  -22.3936 C   0  0  0  0  0  0  0  0  0  0  0  0
    3.3860  -50.2559  -21.3336 C   0  0  0  0  0  0  0  0  0  0  0  0
    2.5344  -49.2165  -21.0104 C   0  0  0  0  0  0  0  0  0  0  0  0
    1.6464  -49.3108  -19.9480 C   0  0  0  0  0  0  0  0  0  0  0  0
    1.6012  -50.4553  -19.1833 C   0  0  0  0  0  0  0  0  0  0  0  0
    2.4299  -51.5109  -19.4780 C   0  0  0  0  0  0  0  0  0  0  0  0
    3.3068  -51.3753  -20.5580 C   0  0  0  0  0  0  0  0  0  0  0  0
    0.6945  -50.5320  -18.0118 C   0  0  0  0  0  0  0  0  0  0  0  0
    1.4252  -51.1677  -16.9820 F   0  0  0  0  0  0  0  0  0  0  0  0
   -0.4213  -51.3013  -18.2329 F   0  0  0  0  0  0  0  0  0  0  0  0
    0.3892  -49.2850  -17.5204 F   0  0  0  0  0  0  0  0  0  0  0  0
    5.3522  -51.2510  -22.2577 C   0  0  0  0  0  0  0  0  0  0  0  0
    6.6421  -50.8924  -21.7863 N   0  0  0  0  0  0  0  0  0  0  0  0
    7.3180  -50.7740  -22.5495 H   0  0  0  0  0  0  0  0  0  0  0  0
    6.9643  -51.4317  -20.9756 H   0  0  0  0  0  0  0  0  0  0  0  0
 17 18  1  0  0  0
 18 16  1  0  0  0
 16  7  1  0  0  0
  7  8  2  0  0  0
  8  9  1  0  0  0
  8 10  1  0  0  0
 10 11  2  0  0  0
 11 12  1  0  0  0
 12 13  2  0  0  0
 13  1  1  0  0  0
  1  2  1  0  0  0
  2  3  1  0  0  0
  3  4  1  0  0  0
  4 19  1  0  0  0
 19 30  1  0  0  0
 30 31  1  0  0  0
 19 20  1  0  0  0
 20 21  2  0  0  0
 21 22  1  0  0  0
 22 23  2  0  0  0
 23 26  1  0  0  0
 26 27  1  0  0  0
 26 28  1  0  0  0
 26 29  1  0  0  0
 23 24  1  0  0  0
 24 25  2  0  0  0
  4  5  1  0  0  0
  5  6  1  0  0  0
 13  7  1  0  0  0
  6  1  1  0  0  0
 25 20  1  0  0  0
  9 14  1  0  0  0
  9 15  1  0  0  0
 31 32  1  0  0  0
 31 33  1  0  0  0
M  END
> <minimizedAffinity>
-7.08236

> <CNNscore>
0.4888318181

> <CNNaffinity>
6.6036863327

> <CNN_VS>
3.2280919552

> <CNNaffinity_variance>
0.0928481817

$$$$
[H]c1nc(N([H])[H])c(OC([H])([H])C([H])([H])[H])c(N2C([H])([H])C([H])([H])N(C([H])(c3c([H])c([H])c(C(F)(F)F)c([H])c3[H])C([H])([H])N([H])[H])C([H])([H])C2([H])[H])n1


 33 35  0  0  0  0  0  0  0  0999 V2000
    1.4504  -51.6596  -22.3682 N   0  0  0  0  0  0  0  0  0  0  0  0
    1.2100  -50.2341  -22.3903 C   0  0  0  0  0  0  0  0  0  0  0  0
    2.2755  -49.6758  -21.4782 C   0  0  0  0  0  0  0  0  0  0  0  0
    3.5336  -49.5415  -22.2578 N   0  0  0  0  0  0  0  0  0  0  0  0
    3.6178  -50.7653  -23.0602 C   0  0  0  0  0  0  0  0  0  0  0  0
    2.9298  -51.9385  -22.4568 C   0  0  0  0  0  0  0  0  0  0  0  0
   -0.0005  -53.4853  -23.2820 C   0  0  0  0  0  0  0  0  0  0  0  0
   -0.9494  -54.4944  -23.0089 C   0  0  0  0  0  0  0  0  0  0  0  0
   -1.5334  -55.2417  -24.0578 N   0  0  0  0  0  0  0  0  0  0  0  0
   -1.3010  -54.7483  -21.7583 N   0  0  0  0  0  0  0  0  0  0  0  0
   -0.7342  -54.0286  -20.7674 C   0  0  0  0  0  0  0  0  0  0  0  0
    0.1593  -53.0739  -21.0234 N   0  0  0  0  0  0  0  0  0  0  0  0
    0.5757  -52.7478  -22.3084 C   0  0  0  0  0  0  0  0  0  0  0  0
   -1.6178  -56.2875  -23.9462 H   0  0  0  0  0  0  0  0  0  0  0  0
   -1.8971  -54.8004  -24.9458 H   0  0  0  0  0  0  0  0  0  0  0  0
    0.2841  -53.3238  -24.6290 O   0  0  0  0  0  0  0  0  0  0  0  0
   -1.0324  -52.4692  -26.4356 C   0  0  0  0  0  0  0  0  0  0  0  0
   -0.0740  -52.1329  -25.3152 C   0  0  0  0  0  0  0  0  0  0  0  0
    4.6431  -49.5377  -21.3248 C   0  0  0  0  0  0  0  0  0  0  0  0
    4.1964  -49.5865  -19.9226 C   0  0  0  0  0  0  0  0  0  0  0  0
    4.2162  -48.4244  -19.1746 C   0  0  0  0  0  0  0  0  0  0  0  0
    3.9134  -48.4291  -17.8202 C   0  0  0  0  0  0  0  0  0  0  0  0
    3.5886  -49.6086  -17.1878 C   0  0  0  0  0  0  0  0  0  0  0  0
    3.5543  -50.7828  -17.9004 C   0  0  0  0  0  0  0  0  0  0  0  0
    3.8631  -50.7329  -19.2628 C   0  0  0  0  0  0  0  0  0  0  0  0
    3.3239  -49.6218  -15.7283 C   0  0  0  0  0  0  0  0  0  0  0  0
    3.9095  -48.4461  -15.2054 F   0  0  0  0  0  0  0  0  0  0  0  0
    3.9122  -50.6766  -15.0749 F   0  0  0  0  0  0  0  0  0  0  0  0
    1.9819  -49.5097  -15.4521 F   0  0  0  0  0  0  0  0  0  0  0  0
    5.3994  -50.8674  -21.5418 C   0  0  0  0  0  0  0  0  0  0  0  0
    6.8103  -50.7403  -21.4513 N   0  0  0  0  0  0  0  0  0  0  0  0
    7.2536  -50.6435  -22.3718 H   0  0  0  0  0  0  0  0  0  0  0  0
    7.2560  -51.3960  -20.8006 H   0  0  0  0  0  0  0  0  0  0  0  0
 17 18  1  0  0  0
 18 16  1  0  0  0
 16  7  1  0  0  0
  7  8  2  0  0  0
  8  9  1  0  0  0
  8 10  1  0  0  0
 10 11  2  0  0  0
 11 12  1  0  0  0
 12 13  2  0  0  0
 13  1  1  0  0  0
  1  2  1  0  0  0
  2  3  1  0  0  0
  3  4  1  0  0  0
  4 19  1  0  0  0
 19 30  1  0  0  0
 30 31  1  0  0  0
 19 20  1  0  0  0
 20 21  2  0  0  0
 21 22  1  0  0  0
 22 23  2  0  0  0
 23 26  1  0  0  0
 26 27  1  0  0  0
 26 28  1  0  0  0
 26 29  1  0  0  0
 23 24  1  0  0  0
 24 25  2  0  0  0
  4  5  1  0  0  0
  5  6  1  0  0  0
 13  7  1  0  0  0
  6  1  1  0  0  0
 25 20  1  0  0  0
  9 14  1  0  0  0
  9 15  1  0  0  0
 31 32  1  0  0  0
 31 33  1  0  0  0
M  END
> <minimizedAffinity>
-6.53770

> <CNNscore>
0.4865596592

> <CNNaffinity>
6.2322297096

> <CNN_VS>
3.0323514938

> <CNNaffinity_variance>
0.4841923714

$$$$
[H]c1nc(N([H])[H])c(OC([H])([H])C([H])([H])[H])c(N2C([H])([H])C([H])([H])N(C([H])(c3c([H])c([H])c(C(F)(F)F)c([H])c3[H])C([H])([H])N([H])[H])C([H])([H])C2([H])[H])n1


 33 35  0  0  0  0  0  0  0  0999 V2000
    1.5701  -51.7333  -21.1043 N   0  0  0  0  0  0  0  0  0  0  0  0
    2.9298  -51.8125  -20.6194 C   0  0  0  0  0  0  0  0  0  0  0  0
    3.7376  -51.1401  -21.7031 C   0  0  0  0  0  0  0  0  0  0  0  0
    3.6770  -49.6710  -21.4867 N   0  0  0  0  0  0  0  0  0  0  0  0
    2.2818  -49.3947  -21.1320 C   0  0  0  0  0  0  0  0  0  0  0  0
    1.3063  -50.3693  -21.6909 C   0  0  0  0  0  0  0  0  0  0  0  0
   -0.0279  -53.4009  -22.0733 C   0  0  0  0  0  0  0  0  0  0  0  0
   -1.1633  -54.2141  -21.8660 C   0  0  0  0  0  0  0  0  0  0  0  0
   -1.7134  -54.9725  -22.9253 N   0  0  0  0  0  0  0  0  0  0  0  0
   -1.7242  -54.2710  -20.6685 N   0  0  0  0  0  0  0  0  0  0  0  0
   -1.1875  -53.5435  -19.6667 C   0  0  0  0  0  0  0  0  0  0  0  0
   -0.1178  -52.7731  -19.8610 N   0  0  0  0  0  0  0  0  0  0  0  0
    0.5234  -52.6591  -21.0886 C   0  0  0  0  0  0  0  0  0  0  0  0
   -1.9890  -55.9738  -22.7390 H   0  0  0  0  0  0  0  0  0  0  0  0
   -1.8690  -54.5806  -23.8936 H   0  0  0  0  0  0  0  0  0  0  0  0
    0.4654  -53.4347  -23.3683 O   0  0  0  0  0  0  0  0  0  0  0  0
   -0.7139  -53.0385  -25.4126 C   0  0  0  0  0  0  0  0  0  0  0  0
    0.1212  -52.4282  -24.3094 C   0  0  0  0  0  0  0  0  0  0  0  0
    3.9582  -49.0180  -22.7499 C   0  0  0  0  0  0  0  0  0  0  0  0
    3.7105  -49.8988  -23.9036 C   0  0  0  0  0  0  0  0  0  0  0  0
    2.7929  -49.5053  -24.8593 C   0  0  0  0  0  0  0  0  0  0  0  0
    2.4359  -50.3406  -25.9084 C   0  0  0  0  0  0  0  0  0  0  0  0
    2.9932  -51.5956  -26.0144 C   0  0  0  0  0  0  0  0  0  0  0  0
    3.9125  -52.0191  -25.0852 C   0  0  0  0  0  0  0  0  0  0  0  0
    4.2459  -51.1452  -24.0463 C   0  0  0  0  0  0  0  0  0  0  0  0
    2.5662  -52.5099  -27.1017 C   0  0  0  0  0  0  0  0  0  0  0  0
    1.3538  -51.9889  -27.6088 F   0  0  0  0  0  0  0  0  0  0  0  0
    2.2946  -53.7847  -26.6696 F   0  0  0  0  0  0  0  0  0  0  0  0
    3.4408  -52.4851  -28.1620 F   0  0  0  0  0  0  0  0  0  0  0  0
    2.9205  -47.8823  -22.8938 C   0  0  0  0  0  0  0  0  0  0  0  0
    3.4981  -46.5865  -22.9374 N   0  0  0  0  0  0  0  0  0  0  0  0
    3.4869  -46.1229  -22.0218 H   0  0  0  0  0  0  0  0  0  0  0  0
    3.2044  -46.0160  -23.7376 H   0  0  0  0  0  0  0  0  0  0  0  0
 17 18  1  0  0  0
 18 16  1  0  0  0
 16  7  1  0  0  0
  7  8  2  0  0  0
  8  9  1  0  0  0
  8 10  1  0  0  0
 10 11  2  0  0  0
 11 12  1  0  0  0
 12 13  2  0  0  0
 13  1  1  0  0  0
  1  2  1  0  0  0
  2  3  1  0  0  0
  3  4  1  0  0  0
  4 19  1  0  0  0
 19 30  1  0  0  0
 30 31  1  0  0  0
 19 20  1  0  0  0
 20 21  2  0  0  0
 21 22  1  0  0  0
 22 23  2  0  0  0
 23 26  1  0  0  0
 26 27  1  0  0  0
 26 28  1  0  0  0
 26 29  1  0  0  0
 23 24  1  0  0  0
 24 25  2  0  0  0
  4  5  1  0  0  0
  5  6  1  0  0  0
 13  7  1  0  0  0
  6  1  1  0  0  0
 25 20  1  0  0  0
  9 14  1  0  0  0
  9 15  1  0  0  0
 31 32  1  0  0  0
 31 33  1  0  0  0
M  END
> <minimizedAffinity>
-6.57894

> <CNNscore>
0.3592284918

> <CNNaffinity>
6.1623330116

> <CNN_VS>
2.2136855125

> <CNNaffinity_variance>
0.4539724290

$$$$
[H]c1nc(N([H])[H])c(OC([H])([H])C([H])([H])[H])c(N2C([H])([H])C([H])([H])N(C([H])(c3c([H])c([H])c(C(F)(F)F)c([H])c3[H])C([H])([H])N([H])[H])C([H])([H])C2([H])[H])n1


 33 35  0  0  0  0  0  0  0  0999 V2000
    1.6688  -51.5480  -21.4924 N   0  0  0  0  0  0  0  0  0  0  0  0
    3.0804  -51.5987  -21.1840 C   0  0  0  0  0  0  0  0  0  0  0  0
    3.7461  -51.5484  -22.5380 C   0  0  0  0  0  0  0  0  0  0  0  0
    3.8244  -50.1276  -22.9669 N   0  0  0  0  0  0  0  0  0  0  0  0
    2.5283  -49.5473  -22.6036 C   0  0  0  0  0  0  0  0  0  0  0  0
    1.4091  -50.5272  -22.5716 C   0  0  0  0  0  0  0  0  0  0  0  0
    0.1437  -52.3766  -19.6867 C   0  0  0  0  0  0  0  0  0  0  0  0
   -0.9411  -53.2119  -19.3417 C   0  0  0  0  0  0  0  0  0  0  0  0
   -1.3608  -53.3345  -17.9968 N   0  0  0  0  0  0  0  0  0  0  0  0
   -1.5762  -53.8911  -20.2835 N   0  0  0  0  0  0  0  0  0  0  0  0
   -1.1660  -53.7630  -21.5627 C   0  0  0  0  0  0  0  0  0  0  0  0
   -0.1406  -52.9776  -21.8899 N   0  0  0  0  0  0  0  0  0  0  0  0
    0.5766  -52.2368  -20.9583 C   0  0  0  0  0  0  0  0  0  0  0  0
   -2.3940  -53.3013  -17.7855 H   0  0  0  0  0  0  0  0  0  0  0  0
   -0.6879  -53.4662  -17.1934 H   0  0  0  0  0  0  0  0  0  0  0  0
    0.7172  -51.7179  -18.6103 O   0  0  0  0  0  0  0  0  0  0  0  0
    0.1693  -50.0320  -17.0026 C   0  0  0  0  0  0  0  0  0  0  0  0
    0.5533  -50.3177  -18.4371 C   0  0  0  0  0  0  0  0  0  0  0  0
    3.9414  -50.0993  -24.4115 C   0  0  0  0  0  0  0  0  0  0  0  0
    3.0771  -51.0975  -25.0635 C   0  0  0  0  0  0  0  0  0  0  0  0
    1.9421  -50.6678  -25.7248 C   0  0  0  0  0  0  0  0  0  0  0  0
    1.0322  -51.5674  -26.2621 C   0  0  0  0  0  0  0  0  0  0  0  0
    1.2441  -52.9227  -26.1394 C   0  0  0  0  0  0  0  0  0  0  0  0
    2.3639  -53.3865  -25.4924 C   0  0  0  0  0  0  0  0  0  0  0  0
    3.2561  -52.4464  -24.9687 C   0  0  0  0  0  0  0  0  0  0  0  0
    0.2410  -53.8828  -26.6613 C   0  0  0  0  0  0  0  0  0  0  0  0
   -0.9352  -53.1380  -26.9065 F   0  0  0  0  0  0  0  0  0  0  0  0
   -0.0968  -54.8640  -25.7620 F   0  0  0  0  0  0  0  0  0  0  0  0
    0.6084  -54.3898  -27.8851 F   0  0  0  0  0  0  0  0  0  0  0  0
    3.3776  -48.7350  -24.8676 C   0  0  0  0  0  0  0  0  0  0  0  0
    4.3348  -47.9131  -25.5181 N   0  0  0  0  0  0  0  0  0  0  0  0
    4.7579  -47.2278  -24.8819 H   0  0  0  0  0  0  0  0  0  0  0  0
    4.0394  -47.5587  -26.4342 H   0  0  0  0  0  0  0  0  0  0  0  0
 17 18  1  0  0  0
 18 16  1  0  0  0
 16  7  1  0  0  0
  7  8  2  0  0  0
  8  9  1  0  0  0
  8 10  1  0  0  0
 10 11  2  0  0  0
 11 12  1  0  0  0
 12 13  2  0  0  0
 13  1  1  0  0  0
  1  2  1  0  0  0
  2  3  1  0  0  0
  3  4  1  0  0  0
  4 19  1  0  0  0
 19 30  1  0  0  0
 30 31  1  0  0  0
 19 20  1  0  0  0
 20 21  2  0  0  0
 21 22  1  0  0  0
 22 23  2  0  0  0
 23 26  1  0  0  0
 26 27  1  0  0  0
 26 28  1  0  0  0
 26 29  1  0  0  0
 23 24  1  0  0  0
 24 25  2  0  0  0
  4  5  1  0  0  0
  5  6  1  0  0  0
 13  7  1  0  0  0
  6  1  1  0  0  0
 25 20  1  0  0  0
  9 14  1  0  0  0
  9 15  1  0  0  0
 31 32  1  0  0  0
 31 33  1  0  0  0
M  END
> <minimizedAffinity>
-7.17686

> <CNNscore>
0.3495861292

> <CNNaffinity>
6.2726640701

> <CNN_VS>
2.1928362846

> <CNNaffinity_variance>
0.3851776123

$$$$
[H]c1nc(N([H])[H])c(OC([H])([H])C([H])([H])[H])c(N2C([H])([H])C([H])([H])N(C([H])(c3c([H])c([H])c(C(F)(F)F)c([H])c3[H])C([H])([H])N([H])[H])C([H])([H])C2([H])[H])n1


 33 35  0  0  0  0  0  0  0  0999 V2000
   -0.4726  -53.3868  -24.3618 N   0  0  0  0  0  0  0  0  0  0  0  0
   -0.9867  -54.4481  -23.5253 C   0  0  0  0  0  0  0  0  0  0  0  0
   -0.1158  -54.3887  -22.2936 C   0  0  0  0  0  0  0  0  0  0  0  0
   -0.6504  -53.3328  -21.3947 N   0  0  0  0  0  0  0  0  0  0  0  0
   -0.9963  -52.2170  -22.2801 C   0  0  0  0  0  0  0  0  0  0  0  0
   -0.1928  -52.1597  -23.5311 C   0  0  0  0  0  0  0  0  0  0  0  0
    0.8963  -53.4702  -26.4577 C   0  0  0  0  0  0  0  0  0  0  0  0
    0.9416  -53.2613  -27.8533 C   0  0  0  0  0  0  0  0  0  0  0  0
    2.1495  -53.4236  -28.5704 N   0  0  0  0  0  0  0  0  0  0  0  0
   -0.1560  -52.9088  -28.5035 N   0  0  0  0  0  0  0  0  0  0  0  0
   -1.3019  -52.7593  -27.8065 C   0  0  0  0  0  0  0  0  0  0  0  0
   -1.3460  -52.9531  -26.4890 N   0  0  0  0  0  0  0  0  0  0  0  0
   -0.2364  -53.3209  -25.7376 C   0  0  0  0  0  0  0  0  0  0  0  0
    2.1267  -53.9489  -29.4852 H   0  0  0  0  0  0  0  0  0  0  0  0
    3.0737  -53.0361  -28.2368 H   0  0  0  0  0  0  0  0  0  0  0  0
    2.1099  -53.8410  -25.8998 O   0  0  0  0  0  0  0  0  0  0  0  0
    3.1366  -51.7015  -25.5907 C   0  0  0  0  0  0  0  0  0  0  0  0
    2.7589  -53.0152  -24.9438 C   0  0  0  0  0  0  0  0  0  0  0  0
    0.4226  -52.8990  -20.5219 C   0  0  0  0  0  0  0  0  0  0  0  0
    0.9476  -51.5747  -20.8945 C   0  0  0  0  0  0  0  0  0  0  0  0
    2.1569  -51.4987  -21.5593 C   0  0  0  0  0  0  0  0  0  0  0  0
    2.7553  -50.2779  -21.8378 C   0  0  0  0  0  0  0  0  0  0  0  0
    2.1490  -49.1047  -21.4466 C   0  0  0  0  0  0  0  0  0  0  0  0
    0.9439  -49.1414  -20.7877 C   0  0  0  0  0  0  0  0  0  0  0  0
    0.3746  -50.3917  -20.5298 C   0  0  0  0  0  0  0  0  0  0  0  0
    2.8183  -47.8038  -21.6916 C   0  0  0  0  0  0  0  0  0  0  0  0
    1.9504  -47.0581  -22.5217 F   0  0  0  0  0  0  0  0  0  0  0  0
    4.0066  -47.9189  -22.3701 F   0  0  0  0  0  0  0  0  0  0  0  0
    2.9364  -47.0656  -20.5380 F   0  0  0  0  0  0  0  0  0  0  0  0
   -0.2075  -52.6925  -19.1263 C   0  0  0  0  0  0  0  0  0  0  0  0
   -1.3679  -53.4792  -18.9043 N   0  0  0  0  0  0  0  0  0  0  0  0
   -2.2335  -52.9569  -19.0813 H   0  0  0  0  0  0  0  0  0  0  0  0
   -1.3445  -54.0396  -18.0457 H   0  0  0  0  0  0  0  0  0  0  0  0
 17 18  1  0  0  0
 18 16  1  0  0  0
 16  7  1  0  0  0
  7  8  2  0  0  0
  8  9  1  0  0  0
  8 10  1  0  0  0
 10 11  2  0  0  0
 11 12  1  0  0  0
 12 13  2  0  0  0
 13  1  1  0  0  0
  1  2  1  0  0  0
  2  3  1  0  0  0
  3  4  1  0  0  0
  4 19  1  0  0  0
 19 30  1  0  0  0
 30 31  1  0  0  0
 19 20  1  0  0  0
 20 21  2  0  0  0
 21 22  1  0  0  0
 22 23  2  0  0  0
 23 26  1  0  0  0
 26 27  1  0  0  0
 26 28  1  0  0  0
 26 29  1  0  0  0
 23 24  1  0  0  0
 24 25  2  0  0  0
  4  5  1  0  0  0
  5  6  1  0  0  0
 13  7  1  0  0  0
  6  1  1  0  0  0
 25 20  1  0  0  0
  9 14  1  0  0  0
  9 15  1  0  0  0
 31 32  1  0  0  0
 31 33  1  0  0  0
M  END
> <minimizedAffinity>
-7.64533

> <CNNscore>
0.3313627839

> <CNNaffinity>
6.7007064819

> <CNN_VS>
2.2203648090

> <CNNaffinity_variance>
0.1992944628

$$$$
[H]c1nc(N([H])[H])c(OC([H])([H])C([H])([H])[H])c(N2C([H])([H])C([H])([H])N(C([H])(c3c([H])c([H])c(C(F)(F)F)c([H])c3[H])C([H])([H])N([H])[H])C([H])([H])C2([H])[H])n1


 33 35  0  0  0  0  0  0  0  0999 V2000
    0.9988  -51.5750  -21.3402 N   0  0  0  0  0  0  0  0  0  0  0  0
    0.8185  -50.1407  -21.3624 C   0  0  0  0  0  0  0  0  0  0  0  0
    0.8728  -49.7491  -19.9054 C   0  0  0  0  0  0  0  0  0  0  0  0
    2.2996  -49.6290  -19.5074 N   0  0  0  0  0  0  0  0  0  0  0  0
    2.9684  -50.7726  -20.1347 C   0  0  0  0  0  0  0  0  0  0  0  0
    2.0836  -51.9472  -20.3610 C   0  0  0  0  0  0  0  0  0  0  0  0
    0.2292  -52.7928  -23.3891 C   0  0  0  0  0  0  0  0  0  0  0  0
   -0.5296  -53.8585  -23.9200 C   0  0  0  0  0  0  0  0  0  0  0  0
   -0.6667  -54.0233  -25.3178 N   0  0  0  0  0  0  0  0  0  0  0  0
   -1.1225  -54.7163  -23.1049 N   0  0  0  0  0  0  0  0  0  0  0  0
   -0.9816  -54.5479  -21.7735 C   0  0  0  0  0  0  0  0  0  0  0  0
   -0.2684  -53.5410  -21.2704 N   0  0  0  0  0  0  0  0  0  0  0  0
    0.3797  -52.5997  -22.0610 C   0  0  0  0  0  0  0  0  0  0  0  0
   -0.5595  -54.9908  -25.7249 H   0  0  0  0  0  0  0  0  0  0  0  0
   -0.8796  -53.2233  -25.9737 H   0  0  0  0  0  0  0  0  0  0  0  0
    0.8018  -51.9713  -24.3477 O   0  0  0  0  0  0  0  0  0  0  0  0
    2.8184  -52.9323  -25.2061 C   0  0  0  0  0  0  0  0  0  0  0  0
    2.2096  -51.7961  -24.4153 C   0  0  0  0  0  0  0  0  0  0  0  0
    2.3811  -49.7930  -18.0694 C   0  0  0  0  0  0  0  0  0  0  0  0
    1.0700  -50.0775  -17.4625 C   0  0  0  0  0  0  0  0  0  0  0  0
    0.4725  -49.1082  -16.6791 C   0  0  0  0  0  0  0  0  0  0  0  0
   -0.7072  -49.3576  -15.9919 C   0  0  0  0  0  0  0  0  0  0  0  0
   -1.3087  -50.5937  -16.0753 C   0  0  0  0  0  0  0  0  0  0  0  0
   -0.7457  -51.5803  -16.8483 C   0  0  0  0  0  0  0  0  0  0  0  0
    0.4410  -51.2862  -17.5260 C   0  0  0  0  0  0  0  0  0  0  0  0
   -2.5366  -50.8779  -15.2931 C   0  0  0  0  0  0  0  0  0  0  0  0
   -3.0448  -49.6256  -14.8783 F   0  0  0  0  0  0  0  0  0  0  0  0
   -2.3022  -51.6034  -14.1510 F   0  0  0  0  0  0  0  0  0  0  0  0
   -3.5246  -51.4266  -16.0757 F   0  0  0  0  0  0  0  0  0  0  0  0
    3.2127  -51.0718  -17.8232 C   0  0  0  0  0  0  0  0  0  0  0  0
    3.9416  -51.0503  -16.6054 N   0  0  0  0  0  0  0  0  0  0  0  0
    4.9168  -50.7595  -16.7390 H   0  0  0  0  0  0  0  0  0  0  0  0
    3.7909  -51.8676  -16.0045 H   0  0  0  0  0  0  0  0  0  0  0  0
 17 18  1  0  0  0
 18 16  1  0  0  0
 16  7  1  0  0  0
  7  8  2  0  0  0
  8  9  1  0  0  0
  8 10  1  0  0  0
 10 11  2  0  0  0
 11 12  1  0  0  0
 12 13  2  0  0  0
 13  1  1  0  0  0
  1  2  1  0  0  0
  2  3  1  0  0  0
  3  4  1  0  0  0
  4 19  1  0  0  0
 19 30  1  0  0  0
 30 31  1  0  0  0
 19 20  1  0  0  0
 20 21  2  0  0  0
 21 22  1  0  0  0
 22 23  2  0  0  0
 23 26  1  0  0  0
 26 27  1  0  0  0
 26 28  1  0  0  0
 26 29  1  0  0  0
 23 24  1  0  0  0
 24 25  2  0  0  0
  4  5  1  0  0  0
  5  6  1  0  0  0
 13  7  1  0  0  0
  6  1  1  0  0  0
 25 20  1  0  0  0
  9 14  1  0  0  0
  9 15  1  0  0  0
 31 32  1  0  0  0
 31 33  1  0  0  0
M  END
> <minimizedAffinity>
-6.95783

> <CNNscore>
0.1959075183

> <CNNaffinity>
6.0670471191

> <CNN_VS>
1.1885801554

> <CNNaffinity_variance>
0.3925984204

$$$$
[H]c1nc(N([H])[H])c(OC([H])([H])C([H])([H])[H])c(N2C([H])([H])C([H])([H])N(C([H])(c3c([H])c([H])c(C(F)(F)F)c([H])c3[H])C([H])([H])N([H])[H])C([H])([H])C2([H])[H])n1


 33 35  0  0  0  0  0  0  0  0999 V2000
    2.6265  -51.3434  -21.6526 N   0  0  0  0  0  0  0  0  0  0  0  0
    3.8588  -51.9788  -22.0627 C   0  0  0  0  0  0  0  0  0  0  0  0
    3.8699  -51.8072  -23.5625 C   0  0  0  0  0  0  0  0  0  0  0  0
    4.3902  -50.4501  -23.8729 N   0  0  0  0  0  0  0  0  0  0  0  0
    3.7553  -49.5645  -22.8925 C   0  0  0  0  0  0  0  0  0  0  0  0
    2.4371  -50.0468  -22.3989 C   0  0  0  0  0  0  0  0  0  0  0  0
    0.6638  -52.6204  -20.7635 C   0  0  0  0  0  0  0  0  0  0  0  0
   -0.2816  -52.7701  -19.7257 C   0  0  0  0  0  0  0  0  0  0  0  0
   -1.3141  -53.7318  -19.8205 N   0  0  0  0  0  0  0  0  0  0  0  0
   -0.2063  -52.0039  -18.6491 N   0  0  0  0  0  0  0  0  0  0  0  0
    0.7851  -51.0917  -18.5715 C   0  0  0  0  0  0  0  0  0  0  0  0
    1.6766  -50.9469  -19.5511 N   0  0  0  0  0  0  0  0  0  0  0  0
    1.6609  -51.7110  -20.7117 C   0  0  0  0  0  0  0  0  0  0  0  0
   -1.5267  -54.3288  -18.9769 H   0  0  0  0  0  0  0  0  0  0  0  0
   -1.8887  -53.8752  -20.6950 H   0  0  0  0  0  0  0  0  0  0  0  0
    0.4774  -53.4860  -21.8300 O   0  0  0  0  0  0  0  0  0  0  0  0
   -0.7231  -54.2074  -23.7705 C   0  0  0  0  0  0  0  0  0  0  0  0
   -0.1000  -53.0349  -23.0468 C   0  0  0  0  0  0  0  0  0  0  0  0
    3.9155  -50.0767  -25.1907 C   0  0  0  0  0  0  0  0  0  0  0  0
    2.8480  -50.9677  -25.6753 C   0  0  0  0  0  0  0  0  0  0  0  0
    3.1958  -52.1036  -26.3818 C   0  0  0  0  0  0  0  0  0  0  0  0
    2.2339  -52.9214  -26.9581 C   0  0  0  0  0  0  0  0  0  0  0  0
    0.8980  -52.6084  -26.8392 C   0  0  0  0  0  0  0  0  0  0  0  0
    0.5147  -51.4894  -26.1401 C   0  0  0  0  0  0  0  0  0  0  0  0
    1.5154  -50.6950  -25.5731 C   0  0  0  0  0  0  0  0  0  0  0  0
   -0.1254  -53.4499  -27.5062 C   0  0  0  0  0  0  0  0  0  0  0  0
    0.0680  -54.7669  -27.0300 F   0  0  0  0  0  0  0  0  0  0  0  0
    0.0141  -53.5023  -28.8713 F   0  0  0  0  0  0  0  0  0  0  0  0
   -1.3990  -53.1091  -27.1167 F   0  0  0  0  0  0  0  0  0  0  0  0
    3.2348  -48.6985  -25.0343 C   0  0  0  0  0  0  0  0  0  0  0  0
    3.6040  -47.7648  -26.0376 N   0  0  0  0  0  0  0  0  0  0  0  0
    4.3532  -47.1350  -25.7284 H   0  0  0  0  0  0  0  0  0  0  0  0
    2.8139  -47.3253  -26.5218 H   0  0  0  0  0  0  0  0  0  0  0  0
 17 18  1  0  0  0
 18 16  1  0  0  0
 16  7  1  0  0  0
  7  8  2  0  0  0
  8  9  1  0  0  0
  8 10  1  0  0  0
 10 11  2  0  0  0
 11 12  1  0  0  0
 12 13  2  0  0  0
 13  1  1  0  0  0
  1  2  1  0  0  0
  2  3  1  0  0  0
  3  4  1  0  0  0
  4 19  1  0  0  0
 19 30  1  0  0  0
 30 31  1  0  0  0
 19 20  1  0  0  0
 20 21  2  0  0  0
 21 22  1  0  0  0
 22 23  2  0  0  0
 23 26  1  0  0  0
 26 27  1  0  0  0
 26 28  1  0  0  0
 26 29  1  0  0  0
 23 24  1  0  0  0
 24 25  2  0  0  0
  4  5  1  0  0  0
  5  6  1  0  0  0
 13  7  1  0  0  0
  6  1  1  0  0  0
 25 20  1  0  0  0
  9 14  1  0  0  0
  9 15  1  0  0  0
 31 32  1  0  0  0
 31 33  1  0  0  0
M  END
> <minimizedAffinity>
-6.88362

> <CNNscore>
0.1820233911

> <CNNaffinity>
6.1455240250

> <CNN_VS>
1.1186290979

> <CNNaffinity_variance>
0.4779642522

$$$$
[H]c1nc(N([H])[H])c(OC([H])([H])C([H])([H])[H])c(N2C([H])([H])C([H])([H])N(C([H])(c3c([H])c([H])c(C(F)(F)F)c([H])c3[H])C([H])([H])N([H])[H])C([H])([H])C2([H])[H])n1


 33 35  0  0  0  0  0  0  0  0999 V2000
    0.4607  -52.7480  -21.4786 N   0  0  0  0  0  0  0  0  0  0  0  0
    0.6794  -53.2352  -20.1350 C   0  0  0  0  0  0  0  0  0  0  0  0
    1.8670  -52.4379  -19.6525 C   0  0  0  0  0  0  0  0  0  0  0  0
    1.3784  -51.1215  -19.1655 N   0  0  0  0  0  0  0  0  0  0  0  0
    0.3777  -50.6981  -20.1493 C   0  0  0  0  0  0  0  0  0  0  0  0
    0.5955  -51.2465  -21.5152 C   0  0  0  0  0  0  0  0  0  0  0  0
    0.5364  -53.2073  -23.9396 C   0  0  0  0  0  0  0  0  0  0  0  0
    0.0061  -53.9357  -25.0266 C   0  0  0  0  0  0  0  0  0  0  0  0
    0.4471  -53.6885  -26.3473 N   0  0  0  0  0  0  0  0  0  0  0  0
   -0.9154  -54.8616  -24.8135 N   0  0  0  0  0  0  0  0  0  0  0  0
   -1.3254  -55.0879  -23.5479 C   0  0  0  0  0  0  0  0  0  0  0  0
   -0.8283  -54.3996  -22.5211 N   0  0  0  0  0  0  0  0  0  0  0  0
    0.1378  -53.4112  -22.6655 C   0  0  0  0  0  0  0  0  0  0  0  0
    0.6591  -54.5127  -26.9711 H   0  0  0  0  0  0  0  0  0  0  0  0
    0.5667  -52.7162  -26.7419 H   0  0  0  0  0  0  0  0  0  0  0  0
    1.4964  -52.2733  -24.2969 O   0  0  0  0  0  0  0  0  0  0  0  0
    3.6504  -52.4120  -25.3302 C   0  0  0  0  0  0  0  0  0  0  0  0
    2.8736  -52.5025  -24.0359 C   0  0  0  0  0  0  0  0  0  0  0  0
    2.4834  -50.1847  -19.2154 C   0  0  0  0  0  0  0  0  0  0  0  0
    2.8918  -49.7276  -17.8765 C   0  0  0  0  0  0  0  0  0  0  0  0
    3.2813  -50.6668  -16.9404 C   0  0  0  0  0  0  0  0  0  0  0  0
    3.5700  -50.3084  -15.6311 C   0  0  0  0  0  0  0  0  0  0  0  0
    3.4668  -48.9935  -15.2347 C   0  0  0  0  0  0  0  0  0  0  0  0
    3.0869  -48.0317  -16.1392 C   0  0  0  0  0  0  0  0  0  0  0  0
    2.8082  -48.4352  -17.4483 C   0  0  0  0  0  0  0  0  0  0  0  0
    3.7173  -48.6209  -13.8209 C   0  0  0  0  0  0  0  0  0  0  0  0
    2.4490  -48.4186  -13.2303 F   0  0  0  0  0  0  0  0  0  0  0  0
    4.4077  -47.4423  -13.6797 F   0  0  0  0  0  0  0  0  0  0  0  0
    4.2838  -49.6545  -13.1135 F   0  0  0  0  0  0  0  0  0  0  0  0
    3.7001  -50.9740  -19.7482 C   0  0  0  0  0  0  0  0  0  0  0  0
    4.4558  -50.2666  -20.7194 N   0  0  0  0  0  0  0  0  0  0  0  0
    4.2006  -50.5273  -21.6787 H   0  0  0  0  0  0  0  0  0  0  0  0
    5.4597  -50.2079  -20.5179 H   0  0  0  0  0  0  0  0  0  0  0  0
 17 18  1  0  0  0
 18 16  1  0  0  0
 16  7  1  0  0  0
  7  8  2  0  0  0
  8  9  1  0  0  0
  8 10  1  0  0  0
 10 11  2  0  0  0
 11 12  1  0  0  0
 12 13  2  0  0  0
 13  1  1  0  0  0
  1  2  1  0  0  0
  2  3  1  0  0  0
  3  4  1  0  0  0
  4 19  1  0  0  0
 19 30  1  0  0  0
 30 31  1  0  0  0
 19 20  1  0  0  0
 20 21  2  0  0  0
 21 22  1  0  0  0
 22 23  2  0  0  0
 23 26  1  0  0  0
 26 27  1  0  0  0
 26 28  1  0  0  0
 26 29  1  0  0  0
 23 24  1  0  0  0
 24 25  2  0  0  0
  4  5  1  0  0  0
  5  6  1  0  0  0
 13  7  1  0  0  0
  6  1  1  0  0  0
 25 20  1  0  0  0
  9 14  1  0  0  0
  9 15  1  0  0  0
 31 32  1  0  0  0
 31 33  1  0  0  0
M  END
> <minimizedAffinity>
-5.81172

> <CNNscore>
0.1671630144

> <CNNaffinity>
5.7428231239

> <CNN_VS>
0.9599876404

> <CNNaffinity_variance>
0.5598503351

$$$$
[H]c1nc(N([H])[H])c(OC([H])([H])C([H])([H])[H])c(N2C([H])([H])C([H])([H])N(C([H])(c3c([H])c([H])c(C(F)(F)F)c([H])c3[H])C([H])([H])N([H])[H])C([H])([H])C2([H])[H])n1


 33 35  0  0  0  0  0  0  0  0999 V2000
    1.2538  -51.4870  -22.8430 N   0  0  0  0  0  0  0  0  0  0  0  0
    2.1595  -50.4231  -23.2147 C   0  0  0  0  0  0  0  0  0  0  0  0
    1.8583  -49.3300  -22.2180 C   0  0  0  0  0  0  0  0  0  0  0  0
    2.6078  -49.6193  -20.9676 N   0  0  0  0  0  0  0  0  0  0  0  0
    2.4597  -51.0627  -20.7593 C   0  0  0  0  0  0  0  0  0  0  0  0
    1.2183  -51.6388  -21.3431 C   0  0  0  0  0  0  0  0  0  0  0  0
   -0.1657  -53.5007  -23.2941 C   0  0  0  0  0  0  0  0  0  0  0  0
   -0.8218  -54.2970  -24.2578 C   0  0  0  0  0  0  0  0  0  0  0  0
   -1.4804  -55.4910  -23.8830 N   0  0  0  0  0  0  0  0  0  0  0  0
   -0.8234  -53.9272  -25.5287 N   0  0  0  0  0  0  0  0  0  0  0  0
   -0.1926  -52.7846  -25.8715 C   0  0  0  0  0  0  0  0  0  0  0  0
    0.4297  -52.0333  -24.9639 N   0  0  0  0  0  0  0  0  0  0  0  0
    0.4775  -52.3569  -23.6134 C   0  0  0  0  0  0  0  0  0  0  0  0
   -2.4384  -55.6850  -24.2803 H   0  0  0  0  0  0  0  0  0  0  0  0
   -1.0542  -56.2027  -23.2294 H   0  0  0  0  0  0  0  0  0  0  0  0
   -0.2433  -53.9953  -22.0014 O   0  0  0  0  0  0  0  0  0  0  0  0
   -1.2256  -53.4673  -19.8841 C   0  0  0  0  0  0  0  0  0  0  0  0
   -1.4695  -53.9822  -21.2849 C   0  0  0  0  0  0  0  0  0  0  0  0
    1.9424  -48.9363  -19.8758 C   0  0  0  0  0  0  0  0  0  0  0  0
    2.0682  -49.6621  -18.6008 C   0  0  0  0  0  0  0  0  0  0  0  0
    0.9204  -50.0800  -17.9543 C   0  0  0  0  0  0  0  0  0  0  0  0
    0.9696  -50.6691  -16.6987 C   0  0  0  0  0  0  0  0  0  0  0  0
    2.1789  -50.8453  -16.0637 C   0  0  0  0  0  0  0  0  0  0  0  0
    3.3413  -50.4462  -16.6781 C   0  0  0  0  0  0  0  0  0  0  0  0
    3.2470  -49.8601  -17.9436 C   0  0  0  0  0  0  0  0  0  0  0  0
    2.2249  -51.4199  -14.6970 C   0  0  0  0  0  0  0  0  0  0  0  0
    1.0514  -52.1943  -14.5495 F   0  0  0  0  0  0  0  0  0  0  0  0
    2.1964  -50.4722  -13.7036 F   0  0  0  0  0  0  0  0  0  0  0  0
    3.2638  -52.3084  -14.5517 F   0  0  0  0  0  0  0  0  0  0  0  0
    2.7137  -47.6162  -19.6531 C   0  0  0  0  0  0  0  0  0  0  0  0
    3.9578  -47.5627  -20.3344 N   0  0  0  0  0  0  0  0  0  0  0  0
    4.7461  -47.8177  -19.7287 H   0  0  0  0  0  0  0  0  0  0  0  0
    4.0872  -46.7307  -20.9200 H   0  0  0  0  0  0  0  0  0  0  0  0
 17 18  1  0  0  0
 18 16  1  0  0  0
 16  7  1  0  0  0
  7  8  2  0  0  0
  8  9  1  0  0  0
  8 10  1  0  0  0
 10 11  2  0  0  0
 11 12  1  0  0  0
 12 13  2  0  0  0
 13  1  1  0  0  0
  1  2  1  0  0  0
  2  3  1  0  0  0
  3  4  1  0  0  0
  4 19  1  0  0  0
 19 30  1  0  0  0
 30 31  1  0  0  0
 19 20  1  0  0  0
 20 21  2  0  0  0
 21 22  1  0  0  0
 22 23  2  0  0  0
 23 26  1  0  0  0
 26 27  1  0  0  0
 26 28  1  0  0  0
 26 29  1  0  0  0
 23 24  1  0  0  0
 24 25  2  0  0  0
  4  5  1  0  0  0
  5  6  1  0  0  0
 13  7  1  0  0  0
  6  1  1  0  0  0
 25 20  1  0  0  0
  9 14  1  0  0  0
  9 15  1  0  0  0
 31 32  1  0  0  0
 31 33  1  0  0  0
M  END
> <minimizedAffinity>
-6.58997

> <CNNscore>
0.1564417034

> <CNNaffinity>
5.8156275749

> <CNN_VS>
0.9098066688

> <CNNaffinity_variance>
0.1637810320

$$$$
[H]OC(=O)[C@@]([H])(Oc1c(Br)c([H])c(-c2c([H])c([H])c(-c3c(C([H])([H])c4c([H])c([H])c([H])c([H])c4[H])oc4c([H])c([H])c([H])c([H])c34)c([H])c2[H])c([H])c1Br)C([H])([H])c1c([H])c([H])c([H])c([H])c1[H]


 43 48  0  0  0  0  0  0  0  0999 V2000
    0.0368  -52.0508  -19.0936 C   0  0  0  0  0  0  0  0  0  0  0  0
   -0.8725  -52.9406  -18.5556 C   0  0  0  0  0  0  0  0  0  0  0  0
   -1.3435  -52.7053  -17.2900 C   0  0  0  0  0  0  0  0  0  0  0  0
   -0.9794  -51.6404  -16.5015 C   0  0  0  0  0  0  0  0  0  0  0  0
   -0.0549  -50.7598  -17.0855 C   0  0  0  0  0  0  0  0  0  0  0  0
    0.4317  -50.9683  -18.3433 C   0  0  0  0  0  0  0  0  0  0  0  0
   -1.4498  -51.4012  -15.1507 C   0  0  0  0  0  0  0  0  0  0  0  0
   -0.8926  -51.6679  -13.9545 C   0  0  0  0  0  0  0  0  0  0  0  0
   -1.7352  -51.2925  -12.9892 O   0  0  0  0  0  0  0  0  0  0  0  0
   -2.8309  -50.7852  -13.4913 C   0  0  0  0  0  0  0  0  0  0  0  0
   -3.9747  -50.2672  -12.9249 C   0  0  0  0  0  0  0  0  0  0  0  0
   -5.0058  -49.7860  -13.7033 C   0  0  0  0  0  0  0  0  0  0  0  0
   -4.8508  -49.8414  -15.0722 C   0  0  0  0  0  0  0  0  0  0  0  0
   -3.6990  -50.3633  -15.6552 C   0  0  0  0  0  0  0  0  0  0  0  0
   -2.7058  -50.8279  -14.8590 C   0  0  0  0  0  0  0  0  0  0  0  0
    0.4182  -52.2640  -13.6217 C   0  0  0  0  0  0  0  0  0  0  0  0
    1.5141  -51.3050  -13.8575 C   0  0  0  0  0  0  0  0  0  0  0  0
    1.5799  -50.0303  -13.3877 C   0  0  0  0  0  0  0  0  0  0  0  0
    2.6719  -49.1940  -13.6696 C   0  0  0  0  0  0  0  0  0  0  0  0
    3.7197  -49.6395  -14.4370 C   0  0  0  0  0  0  0  0  0  0  0  0
    3.6740  -50.9270  -14.9230 C   0  0  0  0  0  0  0  0  0  0  0  0
    2.5944  -51.7409  -14.6381 C   0  0  0  0  0  0  0  0  0  0  0  0
    1.6393  -52.6053  -23.0415 C   0  0  0  0  0  0  0  0  0  0  0  0
    2.2472  -51.7415  -22.1206 C   0  0  0  0  0  0  0  0  0  0  0  0
    3.8256  -50.8273  -22.6563 Br  0  0  0  0  0  0  0  0  0  0  0  0
    1.7284  -51.5644  -20.8531 C   0  0  0  0  0  0  0  0  0  0  0  0
    0.5977  -52.2212  -20.4289 C   0  0  0  0  0  0  0  0  0  0  0  0
   -0.0132  -53.0791  -21.3311 C   0  0  0  0  0  0  0  0  0  0  0  0
    0.5157  -53.2535  -22.6172 C   0  0  0  0  0  0  0  0  0  0  0  0
   -0.5045  -54.4016  -23.7837 Br  0  0  0  0  0  0  0  0  0  0  0  0
    2.1449  -52.7802  -24.3022 O   0  0  0  0  0  0  0  0  0  0  0  0
    1.6999  -52.1541  -25.4974 C   0  0  0  0  0  0  0  0  0  0  0  0
    2.4862  -49.8957  -25.9116 O   0  0  0  0  0  0  0  0  0  0  0  0
    2.7203  -51.1331  -25.8213 C   0  0  0  0  0  0  0  0  0  0  0  0
    4.0429  -51.4949  -26.0480 O   0  0  0  0  0  0  0  0  0  0  0  0
    4.3977  -51.9994  -26.8181 H   0  0  0  0  0  0  0  0  0  0  0  0
    0.3360  -51.5020  -25.3425 C   0  0  0  0  0  0  0  0  0  0  0  0
   -0.6280  -51.8632  -26.3985 C   0  0  0  0  0  0  0  0  0  0  0  0
   -0.1391  -52.3375  -27.6309 C   0  0  0  0  0  0  0  0  0  0  0  0
   -1.0438  -52.7067  -28.6071 C   0  0  0  0  0  0  0  0  0  0  0  0
   -2.4119  -52.6244  -28.4111 C   0  0  0  0  0  0  0  0  0  0  0  0
   -2.8436  -52.1529  -27.1846 C   0  0  0  0  0  0  0  0  0  0  0  0
   -1.9785  -51.7759  -26.1873 C   0  0  0  0  0  0  0  0  0  0  0  0
 33 34  2  0  0  0
 34 35  1  0  0  0
 34 32  1  0  0  0
 32 37  1  0  0  0
 37 38  1  0  0  0
 38 39  2  0  0  0
 39 40  1  0  0  0
 40 41  2  0  0  0
 41 42  1  0  0  0
 42 43  2  0  0  0
 32 31  1  0  0  0
 31 23  1  0  0  0
 23 24  2  0  0  0
 24 25  1  0  0  0
 24 26  1  0  0  0
 26 27  2  0  0  0
 27  1  1  0  0  0
  1  2  2  0  0  0
  2  3  1  0  0  0
  3  4  2  0  0  0
  4  7  1  0  0  0
  7  8  2  0  0  0
  8 16  1  0  0  0
 16 17  1  0  0  0
 17 18  2  0  0  0
 18 19  1  0  0  0
 19 20  2  0  0  0
 20 21  1  0  0  0
 21 22  2  0  0  0
  8  9  1  0  0  0
  9 10  1  0  0  0
 10 11  2  0  0  0
 11 12  1  0  0  0
 12 13  2  0  0  0
 13 14  1  0  0  0
 14 15  2  0  0  0
  4  5  1  0  0  0
  5  6  2  0  0  0
 27 28  1  0  0  0
 28 29  2  0  0  0
 29 30  1  0  0  0
 43 38  1  0  0  0
 29 23  1  0  0  0
  6  1  1  0  0  0
 15  7  1  0  0  0
 22 17  1  0  0  0
 15 10  1  0  0  0
 35 36  1  0  0  0
M  END
> <minimizedAffinity>
-9.64848

> <CNNscore>
0.1565424353

> <CNNaffinity>
6.8895049095

> <CNN_VS>
1.0784999132

> <CNNaffinity_variance>
0.2678661346

$$$$
[H]OC(=O)[C@@]([H])(Oc1c(Br)c([H])c(-c2c([H])c([H])c(-c3c(C([H])([H])c4c([H])c([H])c([H])c([H])c4[H])oc4c([H])c([H])c([H])c([H])c34)c([H])c2[H])c([H])c1Br)C([H])([H])c1c([H])c([H])c([H])c([H])c1[H]


 43 48  0  0  0  0  0  0  0  0999 V2000
    0.4253  -50.9912  -18.7901 C   0  0  0  0  0  0  0  0  0  0  0  0
    0.8586  -49.7732  -18.3035 C   0  0  0  0  0  0  0  0  0  0  0  0
    0.3922  -49.3557  -17.0840 C   0  0  0  0  0  0  0  0  0  0  0  0
   -0.4842  -50.0609  -16.2946 C   0  0  0  0  0  0  0  0  0  0  0  0
   -0.8990  -51.2930  -16.8248 C   0  0  0  0  0  0  0  0  0  0  0  0
   -0.4519  -51.7346  -18.0361 C   0  0  0  0  0  0  0  0  0  0  0  0
   -1.0057  -49.6124  -15.0179 C   0  0  0  0  0  0  0  0  0  0  0  0
   -1.4134  -50.2979  -13.9333 C   0  0  0  0  0  0  0  0  0  0  0  0
   -1.8503  -49.4350  -13.0127 O   0  0  0  0  0  0  0  0  0  0  0  0
   -1.7500  -48.2022  -13.4373 C   0  0  0  0  0  0  0  0  0  0  0  0
   -2.0599  -46.9840  -12.8742 C   0  0  0  0  0  0  0  0  0  0  0  0
   -1.8488  -45.8044  -13.5559 C   0  0  0  0  0  0  0  0  0  0  0  0
   -1.3148  -45.8877  -14.8243 C   0  0  0  0  0  0  0  0  0  0  0  0
   -0.9983  -47.1139  -15.4032 C   0  0  0  0  0  0  0  0  0  0  0  0
   -1.2197  -48.2533  -14.7039 C   0  0  0  0  0  0  0  0  0  0  0  0
   -1.4250  -51.7520  -13.6698 C   0  0  0  0  0  0  0  0  0  0  0  0
   -2.8012  -52.2835  -13.6787 C   0  0  0  0  0  0  0  0  0  0  0  0
   -3.3552  -53.0921  -12.7358 C   0  0  0  0  0  0  0  0  0  0  0  0
   -4.6803  -53.5453  -12.8368 C   0  0  0  0  0  0  0  0  0  0  0  0
   -5.4682  -53.1842  -13.9016 C   0  0  0  0  0  0  0  0  0  0  0  0
   -4.9276  -52.3660  -14.8682 C   0  0  0  0  0  0  0  0  0  0  0  0
   -3.6226  -51.9256  -14.7573 C   0  0  0  0  0  0  0  0  0  0  0  0
    1.7690  -52.4907  -22.5858 C   0  0  0  0  0  0  0  0  0  0  0  0
    0.5425  -52.8872  -22.0360 C   0  0  0  0  0  0  0  0  0  0  0  0
   -0.5341  -54.1000  -23.0279 Br  0  0  0  0  0  0  0  0  0  0  0  0
    0.1146  -52.4045  -20.8149 C   0  0  0  0  0  0  0  0  0  0  0  0
    0.8615  -51.5154  -20.0791 C   0  0  0  0  0  0  0  0  0  0  0  0
    2.0773  -51.1151  -20.6126 C   0  0  0  0  0  0  0  0  0  0  0  0
    2.5085  -51.6098  -21.8511 C   0  0  0  0  0  0  0  0  0  0  0  0
    4.2632  -51.0347  -22.4074 Br  0  0  0  0  0  0  0  0  0  0  0  0
    2.2021  -52.9709  -23.7930 O   0  0  0  0  0  0  0  0  0  0  0  0
    1.8746  -52.4689  -25.0812 C   0  0  0  0  0  0  0  0  0  0  0  0
    3.0457  -50.4365  -25.7040 O   0  0  0  0  0  0  0  0  0  0  0  0
    3.0506  -51.6855  -25.5192 C   0  0  0  0  0  0  0  0  0  0  0  0
    4.2717  -52.3057  -25.7556 O   0  0  0  0  0  0  0  0  0  0  0  0
    4.4915  -52.9245  -26.4919 H   0  0  0  0  0  0  0  0  0  0  0  0
    0.6345  -51.5906  -25.0680 C   0  0  0  0  0  0  0  0  0  0  0  0
   -0.3218  -51.8820  -26.1522 C   0  0  0  0  0  0  0  0  0  0  0  0
    0.1749  -52.3036  -27.4006 C   0  0  0  0  0  0  0  0  0  0  0  0
   -0.7232  -52.6079  -28.4049 C   0  0  0  0  0  0  0  0  0  0  0  0
   -2.0921  -52.5109  -28.2217 C   0  0  0  0  0  0  0  0  0  0  0  0
   -2.5317  -52.0927  -26.9787 C   0  0  0  0  0  0  0  0  0  0  0  0
   -1.6732  -51.7809  -25.9535 C   0  0  0  0  0  0  0  0  0  0  0  0
 33 34  2  0  0  0
 34 35  1  0  0  0
 34 32  1  0  0  0
 32 37  1  0  0  0
 37 38  1  0  0  0
 38 39  2  0  0  0
 39 40  1  0  0  0
 40 41  2  0  0  0
 41 42  1  0  0  0
 42 43  2  0  0  0
 32 31  1  0  0  0
 31 23  1  0  0  0
 23 24  2  0  0  0
 24 25  1  0  0  0
 24 26  1  0  0  0
 26 27  2  0  0  0
 27  1  1  0  0  0
  1  2  2  0  0  0
  2  3  1  0  0  0
  3  4  2  0  0  0
  4  7  1  0  0  0
  7  8  2  0  0  0
  8 16  1  0  0  0
 16 17  1  0  0  0
 17 18  2  0  0  0
 18 19  1  0  0  0
 19 20  2  0  0  0
 20 21  1  0  0  0
 21 22  2  0  0  0
  8  9  1  0  0  0
  9 10  1  0  0  0
 10 11  2  0  0  0
 11 12  1  0  0  0
 12 13  2  0  0  0
 13 14  1  0  0  0
 14 15  2  0  0  0
  4  5  1  0  0  0
  5  6  2  0  0  0
 27 28  1  0  0  0
 28 29  2  0  0  0
 29 30  1  0  0  0
 43 38  1  0  0  0
 29 23  1  0  0  0
  6  1  1  0  0  0
 15  7  1  0  0  0
 22 17  1  0  0  0
 15 10  1  0  0  0
 35 36  1  0  0  0
M  END
> <minimizedAffinity>
-8.58255

> <CNNscore>
0.1246117353

> <CNNaffinity>
6.7838821411

> <CNN_VS>
0.8453513384

> <CNNaffinity_variance>
0.2088684589

$$$$
[H]OC(=O)[C@@]([H])(Oc1c(Br)c([H])c(-c2c([H])c([H])c(-c3c(C([H])([H])c4c([H])c([H])c([H])c([H])c4[H])oc4c([H])c([H])c([H])c([H])c34)c([H])c2[H])c([H])c1Br)C([H])([H])c1c([H])c([H])c([H])c([H])c1[H]


 43 48  0  0  0  0  0  0  0  0999 V2000
    0.4117  -51.2848  -19.1767 C   0  0  0  0  0  0  0  0  0  0  0  0
    0.7030  -50.0041  -18.7489 C   0  0  0  0  0  0  0  0  0  0  0  0
    0.2734  -49.6192  -17.5054 C   0  0  0  0  0  0  0  0  0  0  0  0
   -0.4337  -50.4157  -16.6370 C   0  0  0  0  0  0  0  0  0  0  0  0
   -0.7079  -51.7091  -17.1094 C   0  0  0  0  0  0  0  0  0  0  0  0
   -0.2934  -52.1203  -18.3428 C   0  0  0  0  0  0  0  0  0  0  0  0
   -0.9179  -50.0060  -15.3328 C   0  0  0  0  0  0  0  0  0  0  0  0
   -0.2810  -49.4647  -14.2774 C   0  0  0  0  0  0  0  0  0  0  0  0
   -1.1546  -49.2982  -13.2814 O   0  0  0  0  0  0  0  0  0  0  0  0
   -2.3480  -49.7047  -13.6285 C   0  0  0  0  0  0  0  0  0  0  0  0
   -3.5583  -49.7423  -12.9719 C   0  0  0  0  0  0  0  0  0  0  0  0
   -4.6916  -50.2329  -13.5845 C   0  0  0  0  0  0  0  0  0  0  0  0
   -4.5704  -50.6854  -14.8813 C   0  0  0  0  0  0  0  0  0  0  0  0
   -3.3518  -50.6524  -15.5543 C   0  0  0  0  0  0  0  0  0  0  0  0
   -2.2582  -50.1637  -14.9206 C   0  0  0  0  0  0  0  0  0  0  0  0
    1.1331  -49.0674  -14.1147 C   0  0  0  0  0  0  0  0  0  0  0  0
    2.0185  -50.2472  -14.0959 C   0  0  0  0  0  0  0  0  0  0  0  0
    2.0257  -51.2302  -13.1559 C   0  0  0  0  0  0  0  0  0  0  0  0
    2.9121  -52.3167  -13.2293 C   0  0  0  0  0  0  0  0  0  0  0  0
    3.8104  -52.4234  -14.2621 C   0  0  0  0  0  0  0  0  0  0  0  0
    3.8205  -51.4393  -15.2251 C   0  0  0  0  0  0  0  0  0  0  0  0
    2.9427  -50.3754  -15.1427 C   0  0  0  0  0  0  0  0  0  0  0  0
    1.6769  -52.7030  -23.0302 C   0  0  0  0  0  0  0  0  0  0  0  0
    0.4704  -53.1254  -22.4559 C   0  0  0  0  0  0  0  0  0  0  0  0
   -0.6151  -54.3365  -23.4401 Br  0  0  0  0  0  0  0  0  0  0  0  0
    0.0678  -52.6689  -21.2163 C   0  0  0  0  0  0  0  0  0  0  0  0
    0.8215  -51.7817  -20.4851 C   0  0  0  0  0  0  0  0  0  0  0  0
    2.0176  -51.3559  -21.0427 C   0  0  0  0  0  0  0  0  0  0  0  0
    2.4232  -51.8241  -22.3000 C   0  0  0  0  0  0  0  0  0  0  0  0
    4.1551  -51.2157  -22.8913 Br  0  0  0  0  0  0  0  0  0  0  0  0
    2.0850  -53.1572  -24.2560 O   0  0  0  0  0  0  0  0  0  0  0  0
    1.7248  -52.6330  -25.5265 C   0  0  0  0  0  0  0  0  0  0  0  0
    2.9692  -50.6554  -26.1830 O   0  0  0  0  0  0  0  0  0  0  0  0
    2.9170  -51.9056  -26.0148 C   0  0  0  0  0  0  0  0  0  0  0  0
    4.0897  -52.5853  -26.3221 O   0  0  0  0  0  0  0  0  0  0  0  0
    4.2383  -53.2032  -27.0767 H   0  0  0  0  0  0  0  0  0  0  0  0
    0.5312  -51.6952  -25.4545 C   0  0  0  0  0  0  0  0  0  0  0  0
   -0.5061  -51.9612  -26.4685 C   0  0  0  0  0  0  0  0  0  0  0  0
   -0.1094  -52.3963  -27.7476 C   0  0  0  0  0  0  0  0  0  0  0  0
   -1.0835  -52.6769  -28.6859 C   0  0  0  0  0  0  0  0  0  0  0  0
   -2.4331  -52.5432  -28.4075 C   0  0  0  0  0  0  0  0  0  0  0  0
   -2.7732  -52.1131  -27.1378 C   0  0  0  0  0  0  0  0  0  0  0  0
   -1.8371  -51.8241  -26.1759 C   0  0  0  0  0  0  0  0  0  0  0  0
 33 34  2  0  0  0
 34 35  1  0  0  0
 34 32  1  0  0  0
 32 37  1  0  0  0
 37 38  1  0  0  0
 38 39  2  0  0  0
 39 40  1  0  0  0
 40 41  2  0  0  0
 41 42  1  0  0  0
 42 43  2  0  0  0
 32 31  1  0  0  0
 31 23  1  0  0  0
 23 24  2  0  0  0
 24 25  1  0  0  0
 24 26  1  0  0  0
 26 27  2  0  0  0
 27  1  1  0  0  0
  1  2  2  0  0  0
  2  3  1  0  0  0
  3  4  2  0  0  0
  4  7  1  0  0  0
  7  8  2  0  0  0
  8 16  1  0  0  0
 16 17  1  0  0  0
 17 18  2  0  0  0
 18 19  1  0  0  0
 19 20  2  0  0  0
 20 21  1  0  0  0
 21 22  2  0  0  0
  8  9  1  0  0  0
  9 10  1  0  0  0
 10 11  2  0  0  0
 11 12  1  0  0  0
 12 13  2  0  0  0
 13 14  1  0  0  0
 14 15  2  0  0  0
  4  5  1  0  0  0
  5  6  2  0  0  0
 27 28  1  0  0  0
 28 29  2  0  0  0
 29 30  1  0  0  0
 43 38  1  0  0  0
 29 23  1  0  0  0
  6  1  1  0  0  0
 15  7  1  0  0  0
 22 17  1  0  0  0
 15 10  1  0  0  0
 35 36  1  0  0  0
M  END
> <minimizedAffinity>
-9.65938

> <CNNscore>
0.1181968972

> <CNNaffinity>
6.8370985985

> <CNN_VS>
0.8081238270

> <CNNaffinity_variance>
0.2619136870

$$$$
[H]OC(=O)[C@@]([H])(Oc1c(Br)c([H])c(-c2c([H])c([H])c(-c3c(C([H])([H])c4c([H])c([H])c([H])c([H])c4[H])oc4c([H])c([H])c([H])c([H])c34)c([H])c2[H])c([H])c1Br)C([H])([H])c1c([H])c([H])c([H])c([H])c1[H]


 43 48  0  0  0  0  0  0  0  0999 V2000
    0.4770  -52.0081  -21.2894 C   0  0  0  0  0  0  0  0  0  0  0  0
    0.7252  -50.9047  -22.0824 C   0  0  0  0  0  0  0  0  0  0  0  0
    0.8205  -51.0846  -23.4379 C   0  0  0  0  0  0  0  0  0  0  0  0
    0.6871  -52.2914  -24.0815 C   0  0  0  0  0  0  0  0  0  0  0  0
    0.4346  -53.3867  -23.2402 C   0  0  0  0  0  0  0  0  0  0  0  0
    0.3348  -53.2382  -21.8873 C   0  0  0  0  0  0  0  0  0  0  0  0
    0.8168  -52.4949  -25.5116 C   0  0  0  0  0  0  0  0  0  0  0  0
    1.8953  -52.7295  -26.2824 C   0  0  0  0  0  0  0  0  0  0  0  0
    1.5089  -52.8082  -27.5581 O   0  0  0  0  0  0  0  0  0  0  0  0
    0.2173  -52.6371  -27.6705 C   0  0  0  0  0  0  0  0  0  0  0  0
   -0.6414  -52.6285  -28.7475 C   0  0  0  0  0  0  0  0  0  0  0  0
   -1.9943  -52.4203  -28.5842 C   0  0  0  0  0  0  0  0  0  0  0  0
   -2.4586  -52.2210  -27.3013 C   0  0  0  0  0  0  0  0  0  0  0  0
   -1.5993  -52.2274  -26.2056 C   0  0  0  0  0  0  0  0  0  0  0  0
   -0.2750  -52.4347  -26.4037 C   0  0  0  0  0  0  0  0  0  0  0  0
    3.3161  -52.8992  -25.9129 C   0  0  0  0  0  0  0  0  0  0  0  0
    3.7544  -51.8409  -24.9833 C   0  0  0  0  0  0  0  0  0  0  0  0
    3.8095  -50.5088  -25.2525 C   0  0  0  0  0  0  0  0  0  0  0  0
    4.2429  -49.5783  -24.2944 C   0  0  0  0  0  0  0  0  0  0  0  0
    4.6301  -49.9865  -23.0420 C   0  0  0  0  0  0  0  0  0  0  0  0
    4.5823  -51.3308  -22.7477 C   0  0  0  0  0  0  0  0  0  0  0  0
    4.1530  -52.2368  -23.6986 C   0  0  0  0  0  0  0  0  0  0  0  0
    0.2169  -51.7129  -17.0108 C   0  0  0  0  0  0  0  0  0  0  0  0
   -0.8281  -52.2551  -17.7710 C   0  0  0  0  0  0  0  0  0  0  0  0
   -2.3708  -52.8829  -16.8545 Br  0  0  0  0  0  0  0  0  0  0  0  0
   -0.7418  -52.3467  -19.1461 C   0  0  0  0  0  0  0  0  0  0  0  0
    0.3651  -51.9161  -19.8384 C   0  0  0  0  0  0  0  0  0  0  0  0
    1.4063  -51.3777  -19.0974 C   0  0  0  0  0  0  0  0  0  0  0  0
    1.3129  -51.2844  -17.7021 C   0  0  0  0  0  0  0  0  0  0  0  0
    2.8003  -50.4223  -16.8281 Br  0  0  0  0  0  0  0  0  0  0  0  0
    0.1347  -51.6130  -15.6475 O   0  0  0  0  0  0  0  0  0  0  0  0
   -0.2363  -50.4670  -14.8940 C   0  0  0  0  0  0  0  0  0  0  0  0
   -1.5663  -50.2472  -12.8758 O   0  0  0  0  0  0  0  0  0  0  0  0
   -0.9849  -50.9786  -13.7250 C   0  0  0  0  0  0  0  0  0  0  0  0
   -1.0962  -52.3444  -13.4926 O   0  0  0  0  0  0  0  0  0  0  0  0
   -0.3765  -52.9615  -13.2196 H   0  0  0  0  0  0  0  0  0  0  0  0
   -1.0995  -49.5003  -15.6877 C   0  0  0  0  0  0  0  0  0  0  0  0
   -0.8986  -48.0829  -15.3335 C   0  0  0  0  0  0  0  0  0  0  0  0
   -2.0217  -47.2374  -15.2528 C   0  0  0  0  0  0  0  0  0  0  0  0
   -1.8355  -45.9181  -14.8887 C   0  0  0  0  0  0  0  0  0  0  0  0
   -0.5824  -45.4039  -14.6021 C   0  0  0  0  0  0  0  0  0  0  0  0
    0.4896  -46.2729  -14.6950 C   0  0  0  0  0  0  0  0  0  0  0  0
    0.3485  -47.5909  -15.0527 C   0  0  0  0  0  0  0  0  0  0  0  0
 33 34  2  0  0  0
 34 35  1  0  0  0
 34 32  1  0  0  0
 32 37  1  0  0  0
 37 38  1  0  0  0
 38 39  2  0  0  0
 39 40  1  0  0  0
 40 41  2  0  0  0
 41 42  1  0  0  0
 42 43  2  0  0  0
 32 31  1  0  0  0
 31 23  1  0  0  0
 23 24  2  0  0  0
 24 25  1  0  0  0
 24 26  1  0  0  0
 26 27  2  0  0  0
 27  1  1  0  0  0
  1  2  2  0  0  0
  2  3  1  0  0  0
  3  4  2  0  0  0
  4  7  1  0  0  0
  7  8  2  0  0  0
  8 16  1  0  0  0
 16 17  1  0  0  0
 17 18  2  0  0  0
 18 19  1  0  0  0
 19 20  2  0  0  0
 20 21  1  0  0  0
 21 22  2  0  0  0
  8  9  1  0  0  0
  9 10  1  0  0  0
 10 11  2  0  0  0
 11 12  1  0  0  0
 12 13  2  0  0  0
 13 14  1  0  0  0
 14 15  2  0  0  0
  4  5  1  0  0  0
  5  6  2  0  0  0
 27 28  1  0  0  0
 28 29  2  0  0  0
 29 30  1  0  0  0
 43 38  1  0  0  0
 29 23  1  0  0  0
  6  1  1  0  0  0
 15  7  1  0  0  0
 22 17  1  0  0  0
 15 10  1  0  0  0
 35 36  1  0  0  0
M  END
> <minimizedAffinity>
-8.95839

> <CNNscore>
0.1145502850

> <CNNaffinity>
7.0000214577

> <CNN_VS>
0.8018544316

> <CNNaffinity_variance>
0.2437931597

$$$$
[H]OC(=O)[C@@]([H])(Oc1c(Br)c([H])c(-c2c([H])c([H])c(-c3c(C([H])([H])c4c([H])c([H])c([H])c([H])c4[H])oc4c([H])c([H])c([H])c([H])c34)c([H])c2[H])c([H])c1Br)C([H])([H])c1c([H])c([H])c([H])c([H])c1[H]


 43 48  0  0  0  0  0  0  0  0999 V2000
    0.5616  -51.8803  -21.1018 C   0  0  0  0  0  0  0  0  0  0  0  0
    0.8777  -50.8052  -21.9094 C   0  0  0  0  0  0  0  0  0  0  0  0
    0.9710  -51.0113  -23.2614 C   0  0  0  0  0  0  0  0  0  0  0  0
    0.7725  -52.2183  -23.8877 C   0  0  0  0  0  0  0  0  0  0  0  0
    0.4523  -53.2841  -23.0317 C   0  0  0  0  0  0  0  0  0  0  0  0
    0.3527  -53.1092  -21.6821 C   0  0  0  0  0  0  0  0  0  0  0  0
    0.8991  -52.4508  -25.3136 C   0  0  0  0  0  0  0  0  0  0  0  0
    1.9742  -52.7146  -26.0797 C   0  0  0  0  0  0  0  0  0  0  0  0
    1.5866  -52.8127  -27.3536 O   0  0  0  0  0  0  0  0  0  0  0  0
    0.2974  -52.6265  -27.4694 C   0  0  0  0  0  0  0  0  0  0  0  0
   -0.5614  -52.6271  -28.5464 C   0  0  0  0  0  0  0  0  0  0  0  0
   -1.9114  -52.3978  -28.3872 C   0  0  0  0  0  0  0  0  0  0  0  0
   -2.3727  -52.1677  -27.1084 C   0  0  0  0  0  0  0  0  0  0  0  0
   -1.5134  -52.1645  -26.0128 C   0  0  0  0  0  0  0  0  0  0  0  0
   -0.1919  -52.3933  -26.2067 C   0  0  0  0  0  0  0  0  0  0  0  0
    3.3928  -52.8962  -25.7069 C   0  0  0  0  0  0  0  0  0  0  0  0
    3.8687  -51.7820  -24.8653 C   0  0  0  0  0  0  0  0  0  0  0  0
    3.9013  -50.4683  -25.2164 C   0  0  0  0  0  0  0  0  0  0  0  0
    4.3748  -49.4800  -24.3386 C   0  0  0  0  0  0  0  0  0  0  0  0
    4.8256  -49.8103  -23.0845 C   0  0  0  0  0  0  0  0  0  0  0  0
    4.8016  -51.1346  -22.7080 C   0  0  0  0  0  0  0  0  0  0  0  0
    4.3325  -52.0981  -23.5804 C   0  0  0  0  0  0  0  0  0  0  0  0
    0.1527  -51.5509  -16.8373 C   0  0  0  0  0  0  0  0  0  0  0  0
    1.2925  -51.0775  -17.5010 C   0  0  0  0  0  0  0  0  0  0  0  0
    2.6586  -50.2587  -16.4631 Br  0  0  0  0  0  0  0  0  0  0  0  0
    1.4213  -51.1867  -18.8716 C   0  0  0  0  0  0  0  0  0  0  0  0
    0.4462  -51.7596  -19.6531 C   0  0  0  0  0  0  0  0  0  0  0  0
   -0.6870  -52.2318  -19.0081 C   0  0  0  0  0  0  0  0  0  0  0  0
   -0.8119  -52.1211  -17.6165 C   0  0  0  0  0  0  0  0  0  0  0  0
   -2.3997  -52.9139  -16.8617 Br  0  0  0  0  0  0  0  0  0  0  0  0
    0.0218  -51.4518  -15.4777 O   0  0  0  0  0  0  0  0  0  0  0  0
   -0.5698  -50.3843  -14.7503 C   0  0  0  0  0  0  0  0  0  0  0  0
   -2.5755  -50.4281  -13.3845 O   0  0  0  0  0  0  0  0  0  0  0  0
   -1.5542  -51.0127  -13.8421 C   0  0  0  0  0  0  0  0  0  0  0  0
   -1.4039  -52.3320  -13.4318 O   0  0  0  0  0  0  0  0  0  0  0  0
   -0.7133  -52.6911  -12.8257 H   0  0  0  0  0  0  0  0  0  0  0  0
   -1.2586  -49.3738  -15.6524 C   0  0  0  0  0  0  0  0  0  0  0  0
   -1.0355  -47.9688  -15.2638 C   0  0  0  0  0  0  0  0  0  0  0  0
   -2.1517  -47.1326  -15.0692 C   0  0  0  0  0  0  0  0  0  0  0  0
   -1.9423  -45.8261  -14.6731 C   0  0  0  0  0  0  0  0  0  0  0  0
   -0.6726  -45.3156  -14.4629 C   0  0  0  0  0  0  0  0  0  0  0  0
    0.3918  -46.1750  -14.6667 C   0  0  0  0  0  0  0  0  0  0  0  0
    0.2278  -47.4803  -15.0597 C   0  0  0  0  0  0  0  0  0  0  0  0
 33 34  2  0  0  0
 34 35  1  0  0  0
 34 32  1  0  0  0
 32 37  1  0  0  0
 37 38  1  0  0  0
 38 39  2  0  0  0
 39 40  1  0  0  0
 40 41  2  0  0  0
 41 42  1  0  0  0
 42 43  2  0  0  0
 32 31  1  0  0  0
 31 23  1  0  0  0
 23 24  2  0  0  0
 24 25  1  0  0  0
 24 26  1  0  0  0
 26 27  2  0  0  0
 27  1  1  0  0  0
  1  2  2  0  0  0
  2  3  1  0  0  0
  3  4  2  0  0  0
  4  7  1  0  0  0
  7  8  2  0  0  0
  8 16  1  0  0  0
 16 17  1  0  0  0
 17 18  2  0  0  0
 18 19  1  0  0  0
 19 20  2  0  0  0
 20 21  1  0  0  0
 21 22  2  0  0  0
  8  9  1  0  0  0
  9 10  1  0  0  0
 10 11  2  0  0  0
 11 12  1  0  0  0
 12 13  2  0  0  0
 13 14  1  0  0  0
 14 15  2  0  0  0
  4  5  1  0  0  0
  5  6  2  0  0  0
 27 28  1  0  0  0
 28 29  2  0  0  0
 29 30  1  0  0  0
 43 38  1  0  0  0
 29 23  1  0  0  0
  6  1  1  0  0  0
 15  7  1  0  0  0
 22 17  1  0  0  0
 15 10  1  0  0  0
 35 36  1  0  0  0
M  END
> <minimizedAffinity>
-8.99971

> <CNNscore>
0.1044721603

> <CNNaffinity>
6.9306664467

> <CNN_VS>
0.7240616679

> <CNNaffinity_variance>
0.2903550267

$$$$
[H]OC(=O)[C@@]([H])(Oc1c(Br)c([H])c(-c2c([H])c([H])c(-c3c(C([H])([H])c4c([H])c([H])c([H])c([H])c4[H])oc4c([H])c([H])c([H])c([H])c34)c([H])c2[H])c([H])c1Br)C([H])([H])c1c([H])c([H])c([H])c([H])c1[H]


 43 48  0  0  0  0  0  0  0  0999 V2000
    0.4402  -51.3364  -18.7790 C   0  0  0  0  0  0  0  0  0  0  0  0
    0.5323  -50.1637  -19.5030 C   0  0  0  0  0  0  0  0  0  0  0  0
    1.2062  -50.1861  -20.6965 C   0  0  0  0  0  0  0  0  0  0  0  0
    1.8062  -51.2969  -21.2392 C   0  0  0  0  0  0  0  0  0  0  0  0
    1.6886  -52.4675  -20.4730 C   0  0  0  0  0  0  0  0  0  0  0  0
    1.0240  -52.4756  -19.2811 C   0  0  0  0  0  0  0  0  0  0  0  0
    2.5467  -51.3218  -22.4859 C   0  0  0  0  0  0  0  0  0  0  0  0
    2.1455  -51.5254  -23.7547 C   0  0  0  0  0  0  0  0  0  0  0  0
    3.2114  -51.4913  -24.5583 O   0  0  0  0  0  0  0  0  0  0  0  0
    4.3069  -51.2721  -23.8787 C   0  0  0  0  0  0  0  0  0  0  0  0
    5.6308  -51.1514  -24.2393 C   0  0  0  0  0  0  0  0  0  0  0  0
    6.6113  -50.9143  -23.2997 C   0  0  0  0  0  0  0  0  0  0  0  0
    6.2186  -50.8015  -21.9828 C   0  0  0  0  0  0  0  0  0  0  0  0
    4.8832  -50.9221  -21.6072 C   0  0  0  0  0  0  0  0  0  0  0  0
    3.9462  -51.1556  -22.5579 C   0  0  0  0  0  0  0  0  0  0  0  0
    0.7931  -51.7535  -24.3051 C   0  0  0  0  0  0  0  0  0  0  0  0
   -0.0294  -52.5565  -23.3804 C   0  0  0  0  0  0  0  0  0  0  0  0
   -1.0145  -52.0869  -22.5686 C   0  0  0  0  0  0  0  0  0  0  0  0
   -1.7426  -52.9377  -21.7216 C   0  0  0  0  0  0  0  0  0  0  0  0
   -1.4812  -54.2850  -21.6838 C   0  0  0  0  0  0  0  0  0  0  0  0
   -0.4879  -54.7822  -22.4975 C   0  0  0  0  0  0  0  0  0  0  0  0
    0.2212  -53.9351  -23.3276 C   0  0  0  0  0  0  0  0  0  0  0  0
   -1.6568  -51.5726  -15.0362 C   0  0  0  0  0  0  0  0  0  0  0  0
   -0.3564  -51.0562  -15.1141 C   0  0  0  0  0  0  0  0  0  0  0  0
    0.4593  -50.4366  -13.5127 Br  0  0  0  0  0  0  0  0  0  0  0  0
    0.3152  -50.9835  -16.3186 C   0  0  0  0  0  0  0  0  0  0  0  0
   -0.2509  -51.4088  -17.4969 C   0  0  0  0  0  0  0  0  0  0  0  0
   -1.5377  -51.9217  -17.4330 C   0  0  0  0  0  0  0  0  0  0  0  0
   -2.2143  -51.9959  -16.2078 C   0  0  0  0  0  0  0  0  0  0  0  0
   -3.9547  -52.8243  -16.2715 Br  0  0  0  0  0  0  0  0  0  0  0  0
   -2.3257  -51.6537  -13.8440 O   0  0  0  0  0  0  0  0  0  0  0  0
   -3.2306  -50.7008  -13.3036 C   0  0  0  0  0  0  0  0  0  0  0  0
   -4.4805  -52.7015  -12.7336 O   0  0  0  0  0  0  0  0  0  0  0  0
   -4.4521  -51.4587  -12.9539 C   0  0  0  0  0  0  0  0  0  0  0  0
   -5.6801  -50.8177  -12.8408 O   0  0  0  0  0  0  0  0  0  0  0  0
   -6.2134  -50.4216  -13.5702 H   0  0  0  0  0  0  0  0  0  0  0  0
   -3.5652  -49.5905  -14.2858 C   0  0  0  0  0  0  0  0  0  0  0  0
   -2.7187  -48.3906  -14.1499 C   0  0  0  0  0  0  0  0  0  0  0  0
   -2.4556  -47.8875  -12.8613 C   0  0  0  0  0  0  0  0  0  0  0  0
   -1.6357  -46.7834  -12.7334 C   0  0  0  0  0  0  0  0  0  0  0  0
   -1.0671  -46.1585  -13.8303 C   0  0  0  0  0  0  0  0  0  0  0  0
   -1.3547  -46.6891  -15.0748 C   0  0  0  0  0  0  0  0  0  0  0  0
   -2.1639  -47.7850  -15.2461 C   0  0  0  0  0  0  0  0  0  0  0  0
 33 34  2  0  0  0
 34 35  1  0  0  0
 34 32  1  0  0  0
 32 37  1  0  0  0
 37 38  1  0  0  0
 38 39  2  0  0  0
 39 40  1  0  0  0
 40 41  2  0  0  0
 41 42  1  0  0  0
 42 43  2  0  0  0
 32 31  1  0  0  0
 31 23  1  0  0  0
 23 24  2  0  0  0
 24 25  1  0  0  0
 24 26  1  0  0  0
 26 27  2  0  0  0
 27  1  1  0  0  0
  1  2  2  0  0  0
  2  3  1  0  0  0
  3  4  2  0  0  0
  4  7  1  0  0  0
  7  8  2  0  0  0
  8 16  1  0  0  0
 16 17  1  0  0  0
 17 18  2  0  0  0
 18 19  1  0  0  0
 19 20  2  0  0  0
 20 21  1  0  0  0
 21 22  2  0  0  0
  8  9  1  0  0  0
  9 10  1  0  0  0
 10 11  2  0  0  0
 11 12  1  0  0  0
 12 13  2  0  0  0
 13 14  1  0  0  0
 14 15  2  0  0  0
  4  5  1  0  0  0
  5  6  2  0  0  0
 27 28  1  0  0  0
 28 29  2  0  0  0
 29 30  1  0  0  0
 43 38  1  0  0  0
 29 23  1  0  0  0
  6  1  1  0  0  0
 15  7  1  0  0  0
 22 17  1  0  0  0
 15 10  1  0  0  0
 35 36  1  0  0  0
M  END
> <minimizedAffinity>
-7.33247

> <CNNscore>
0.0937324762

> <CNNaffinity>
6.7632303238

> <CNN_VS>
0.6339343190

> <CNNaffinity_variance>
0.2861086428

$$$$
[H]OC(=O)[C@@]([H])(Oc1c(Br)c([H])c(-c2c([H])c([H])c(-c3c(C([H])([H])c4c([H])c([H])c([H])c([H])c4[H])oc4c([H])c([H])c([H])c([H])c34)c([H])c2[H])c([H])c1Br)C([H])([H])c1c([H])c([H])c([H])c([H])c1[H]


 43 48  0  0  0  0  0  0  0  0999 V2000
    0.1034  -52.0987  -20.8519 C   0  0  0  0  0  0  0  0  0  0  0  0
    0.5887  -51.0468  -21.6043 C   0  0  0  0  0  0  0  0  0  0  0  0
    0.7761  -51.2391  -22.9485 C   0  0  0  0  0  0  0  0  0  0  0  0
    0.5164  -52.4106  -23.6182 C   0  0  0  0  0  0  0  0  0  0  0  0
    0.0239  -53.4537  -22.8179 C   0  0  0  0  0  0  0  0  0  0  0  0
   -0.1725  -53.2918  -21.4772 C   0  0  0  0  0  0  0  0  0  0  0  0
    0.7407  -52.6314  -25.0339 C   0  0  0  0  0  0  0  0  0  0  0  0
    1.8606  -52.9213  -25.7224 C   0  0  0  0  0  0  0  0  0  0  0  0
    1.5652  -52.9927  -27.0226 O   0  0  0  0  0  0  0  0  0  0  0  0
    0.2945  -52.7639  -27.2303 C   0  0  0  0  0  0  0  0  0  0  0  0
   -0.4820  -52.7249  -28.3674 C   0  0  0  0  0  0  0  0  0  0  0  0
   -1.8322  -52.4540  -28.3047 C   0  0  0  0  0  0  0  0  0  0  0  0
   -2.3792  -52.2233  -27.0603 C   0  0  0  0  0  0  0  0  0  0  0  0
   -1.6035  -52.2599  -25.9045 C   0  0  0  0  0  0  0  0  0  0  0  0
   -0.2791  -52.5289  -26.0040 C   0  0  0  0  0  0  0  0  0  0  0  0
    3.2414  -53.1526  -25.2489 C   0  0  0  0  0  0  0  0  0  0  0  0
    3.8008  -51.9380  -24.6258 C   0  0  0  0  0  0  0  0  0  0  0  0
    3.9134  -50.7152  -25.2107 C   0  0  0  0  0  0  0  0  0  0  0  0
    4.4626  -49.6175  -24.5289 C   0  0  0  0  0  0  0  0  0  0  0  0
    4.9093  -49.7435  -23.2368 C   0  0  0  0  0  0  0  0  0  0  0  0
    4.8050  -50.9727  -22.6251 C   0  0  0  0  0  0  0  0  0  0  0  0
    4.2617  -52.0454  -23.3059 C   0  0  0  0  0  0  0  0  0  0  0  0
   -0.6309  -51.8045  -16.6287 C   0  0  0  0  0  0  0  0  0  0  0  0
    0.5714  -51.3590  -17.1944 C   0  0  0  0  0  0  0  0  0  0  0  0
    1.8751  -50.5943  -16.0413 Br  0  0  0  0  0  0  0  0  0  0  0  0
    0.8047  -51.4568  -18.5519 C   0  0  0  0  0  0  0  0  0  0  0  0
   -0.1224  -51.9906  -19.4153 C   0  0  0  0  0  0  0  0  0  0  0  0
   -1.3165  -52.4349  -18.8678 C   0  0  0  0  0  0  0  0  0  0  0  0
   -1.5475  -52.3360  -17.4889 C   0  0  0  0  0  0  0  0  0  0  0  0
   -3.2129  -53.0879  -16.8721 Br  0  0  0  0  0  0  0  0  0  0  0  0
   -0.8656  -51.7166  -15.2824 O   0  0  0  0  0  0  0  0  0  0  0  0
   -1.8757  -50.9532  -14.6377 C   0  0  0  0  0  0  0  0  0  0  0  0
   -1.7177  -48.6701  -15.4456 O   0  0  0  0  0  0  0  0  0  0  0  0
   -1.3770  -49.5605  -14.6178 C   0  0  0  0  0  0  0  0  0  0  0  0
   -0.4754  -49.1406  -13.6470 O   0  0  0  0  0  0  0  0  0  0  0  0
    0.4690  -49.4110  -13.5560 H   0  0  0  0  0  0  0  0  0  0  0  0
   -2.1549  -51.4307  -13.2223 C   0  0  0  0  0  0  0  0  0  0  0  0
   -3.4189  -52.1762  -13.0762 C   0  0  0  0  0  0  0  0  0  0  0  0
   -3.3748  -53.5824  -13.0157 C   0  0  0  0  0  0  0  0  0  0  0  0
   -4.5561  -54.2777  -12.8457 C   0  0  0  0  0  0  0  0  0  0  0  0
   -5.7778  -53.6359  -12.7338 C   0  0  0  0  0  0  0  0  0  0  0  0
   -5.7701  -52.2543  -12.7991 C   0  0  0  0  0  0  0  0  0  0  0  0
   -4.6190  -51.5250  -12.9667 C   0  0  0  0  0  0  0  0  0  0  0  0
 33 34  2  0  0  0
 34 35  1  0  0  0
 34 32  1  0  0  0
 32 37  1  0  0  0
 37 38  1  0  0  0
 38 39  2  0  0  0
 39 40  1  0  0  0
 40 41  2  0  0  0
 41 42  1  0  0  0
 42 43  2  0  0  0
 32 31  1  0  0  0
 31 23  1  0  0  0
 23 24  2  0  0  0
 24 25  1  0  0  0
 24 26  1  0  0  0
 26 27  2  0  0  0
 27  1  1  0  0  0
  1  2  2  0  0  0
  2  3  1  0  0  0
  3  4  2  0  0  0
  4  7  1  0  0  0
  7  8  2  0  0  0
  8 16  1  0  0  0
 16 17  1  0  0  0
 17 18  2  0  0  0
 18 19  1  0  0  0
 19 20  2  0  0  0
 20 21  1  0  0  0
 21 22  2  0  0  0
  8  9  1  0  0  0
  9 10  1  0  0  0
 10 11  2  0  0  0
 11 12  1  0  0  0
 12 13  2  0  0  0
 13 14  1  0  0  0
 14 15  2  0  0  0
  4  5  1  0  0  0
  5  6  2  0  0  0
 27 28  1  0  0  0
 28 29  2  0  0  0
 29 30  1  0  0  0
 43 38  1  0  0  0
 29 23  1  0  0  0
  6  1  1  0  0  0
 15  7  1  0  0  0
 22 17  1  0  0  0
 15 10  1  0  0  0
 35 36  1  0  0  0
M  END
> <minimizedAffinity>
-7.87468

> <CNNscore>
0.0861897543

> <CNNaffinity>
6.8817634583

> <CNN_VS>
0.5931375027

> <CNNaffinity_variance>
0.1884669513

$$$$
[H]OC(=O)[C@@]([H])(Oc1c(Br)c([H])c(-c2c([H])c([H])c(-c3c(C([H])([H])c4c([H])c([H])c([H])c([H])c4[H])oc4c([H])c([H])c([H])c([H])c34)c([H])c2[H])c([H])c1Br)C([H])([H])c1c([H])c([H])c([H])c([H])c1[H]


 43 48  0  0  0  0  0  0  0  0999 V2000
    0.8232  -51.7120  -21.5688 C   0  0  0  0  0  0  0  0  0  0  0  0
    0.6624  -53.0076  -22.0202 C   0  0  0  0  0  0  0  0  0  0  0  0
    0.6797  -53.2332  -23.3722 C   0  0  0  0  0  0  0  0  0  0  0  0
    0.8465  -52.2610  -24.3289 C   0  0  0  0  0  0  0  0  0  0  0  0
    1.0076  -50.9591  -23.8285 C   0  0  0  0  0  0  0  0  0  0  0  0
    0.9946  -50.7040  -22.4881 C   0  0  0  0  0  0  0  0  0  0  0  0
    0.8355  -52.4873  -25.7614 C   0  0  0  0  0  0  0  0  0  0  0  0
    1.8318  -52.7487  -26.6282 C   0  0  0  0  0  0  0  0  0  0  0  0
    1.3235  -52.8407  -27.8595 O   0  0  0  0  0  0  0  0  0  0  0  0
    0.0295  -52.6528  -27.8503 C   0  0  0  0  0  0  0  0  0  0  0  0
   -0.9286  -52.6477  -28.8399 C   0  0  0  0  0  0  0  0  0  0  0  0
   -2.2568  -52.4177  -28.5509 C   0  0  0  0  0  0  0  0  0  0  0  0
   -2.5930  -52.1930  -27.2328 C   0  0  0  0  0  0  0  0  0  0  0  0
   -1.6325  -52.1955  -26.2246 C   0  0  0  0  0  0  0  0  0  0  0  0
   -0.3361  -52.4247  -26.5455 C   0  0  0  0  0  0  0  0  0  0  0  0
    3.2793  -52.9334  -26.3940 C   0  0  0  0  0  0  0  0  0  0  0  0
    3.7806  -51.9820  -25.3841 C   0  0  0  0  0  0  0  0  0  0  0  0
    3.8771  -50.6332  -25.5305 C   0  0  0  0  0  0  0  0  0  0  0  0
    4.3698  -49.8116  -24.5040 C   0  0  0  0  0  0  0  0  0  0  0  0
    4.7751  -50.3479  -23.3069 C   0  0  0  0  0  0  0  0  0  0  0  0
    4.6862  -51.7115  -23.1369 C   0  0  0  0  0  0  0  0  0  0  0  0
    4.1987  -52.5096  -24.1541 C   0  0  0  0  0  0  0  0  0  0  0  0
    0.8538  -50.6756  -17.3991 C   0  0  0  0  0  0  0  0  0  0  0  0
   -0.0750  -51.5872  -17.9189 C   0  0  0  0  0  0  0  0  0  0  0  0
   -1.3206  -52.3790  -16.7208 Br  0  0  0  0  0  0  0  0  0  0  0  0
   -0.0830  -51.9166  -19.2600 C   0  0  0  0  0  0  0  0  0  0  0  0
    0.8129  -51.3739  -20.1503 C   0  0  0  0  0  0  0  0  0  0  0  0
    1.7374  -50.4705  -19.6481 C   0  0  0  0  0  0  0  0  0  0  0  0
    1.7399  -50.1374  -18.2867 C   0  0  0  0  0  0  0  0  0  0  0  0
    3.0212  -48.7936  -17.7651 Br  0  0  0  0  0  0  0  0  0  0  0  0
    0.8627  -50.3396  -16.0715 O   0  0  0  0  0  0  0  0  0  0  0  0
    0.0379  -49.3796  -15.4259 C   0  0  0  0  0  0  0  0  0  0  0  0
    1.9728  -48.3610  -14.3729 O   0  0  0  0  0  0  0  0  0  0  0  0
    0.9299  -48.2523  -15.0763 C   0  0  0  0  0  0  0  0  0  0  0  0
    0.6596  -46.9647  -15.5243 O   0  0  0  0  0  0  0  0  0  0  0  0
   -0.0826  -46.3801  -15.2404 H   0  0  0  0  0  0  0  0  0  0  0  0
   -0.6286  -49.9285  -14.1754 C   0  0  0  0  0  0  0  0  0  0  0  0
   -2.1024  -49.8938  -14.2135 C   0  0  0  0  0  0  0  0  0  0  0  0
   -2.7385  -48.9046  -14.9880 C   0  0  0  0  0  0  0  0  0  0  0  0
   -4.1184  -48.8938  -15.0492 C   0  0  0  0  0  0  0  0  0  0  0  0
   -4.8919  -49.8226  -14.3741 C   0  0  0  0  0  0  0  0  0  0  0  0
   -4.2218  -50.7743  -13.6269 C   0  0  0  0  0  0  0  0  0  0  0  0
   -2.8524  -50.8209  -13.5396 C   0  0  0  0  0  0  0  0  0  0  0  0
 33 34  2  0  0  0
 34 35  1  0  0  0
 34 32  1  0  0  0
 32 37  1  0  0  0
 37 38  1  0  0  0
 38 39  2  0  0  0
 39 40  1  0  0  0
 40 41  2  0  0  0
 41 42  1  0  0  0
 42 43  2  0  0  0
 32 31  1  0  0  0
 31 23  1  0  0  0
 23 24  2  0  0  0
 24 25  1  0  0  0
 24 26  1  0  0  0
 26 27  2  0  0  0
 27  1  1  0  0  0
  1  2  2  0  0  0
  2  3  1  0  0  0
  3  4  2  0  0  0
  4  7  1  0  0  0
  7  8  2  0  0  0
  8 16  1  0  0  0
 16 17  1  0  0  0
 17 18  2  0  0  0
 18 19  1  0  0  0
 19 20  2  0  0  0
 20 21  1  0  0  0
 21 22  2  0  0  0
  8  9  1  0  0  0
  9 10  1  0  0  0
 10 11  2  0  0  0
 11 12  1  0  0  0
 12 13  2  0  0  0
 13 14  1  0  0  0
 14 15  2  0  0  0
  4  5  1  0  0  0
  5  6  2  0  0  0
 27 28  1  0  0  0
 28 29  2  0  0  0
 29 30  1  0  0  0
 43 38  1  0  0  0
 29 23  1  0  0  0
  6  1  1  0  0  0
 15  7  1  0  0  0
 22 17  1  0  0  0
 15 10  1  0  0  0
 35 36  1  0  0  0
M  END
> <minimizedAffinity>
-9.32811

> <CNNscore>
0.0804863870

> <CNNaffinity>
6.6960525513

> <CNN_VS>
0.5389410853

> <CNNaffinity_variance>
0.4295890331

$$$$
[H]OC(=O)[C@@]([H])(Oc1c(Br)c([H])c(-c2c([H])c([H])c(-c3c(C([H])([H])c4c([H])c([H])c([H])c([H])c4[H])oc4c([H])c([H])c([H])c([H])c34)c([H])c2[H])c([H])c1Br)C([H])([H])c1c([H])c([H])c([H])c([H])c1[H]


 43 48  0  0  0  0  0  0  0  0999 V2000
    0.8920  -51.2327  -21.3686 C   0  0  0  0  0  0  0  0  0  0  0  0
    1.4315  -50.2283  -22.1484 C   0  0  0  0  0  0  0  0  0  0  0  0
    1.4223  -50.3846  -23.5101 C   0  0  0  0  0  0  0  0  0  0  0  0
    0.9123  -51.4755  -24.1723 C   0  0  0  0  0  0  0  0  0  0  0  0
    0.3729  -52.4724  -23.3437 C   0  0  0  0  0  0  0  0  0  0  0  0
    0.3683  -52.3446  -21.9851 C   0  0  0  0  0  0  0  0  0  0  0  0
    0.9263  -51.6620  -25.6104 C   0  0  0  0  0  0  0  0  0  0  0  0
    1.9131  -51.5235  -26.5157 C   0  0  0  0  0  0  0  0  0  0  0  0
    1.4238  -51.7710  -27.7331 O   0  0  0  0  0  0  0  0  0  0  0  0
    0.1519  -52.0701  -27.6779 C   0  0  0  0  0  0  0  0  0  0  0  0
   -0.7814  -52.3967  -28.6369 C   0  0  0  0  0  0  0  0  0  0  0  0
   -2.0889  -52.6746  -28.2997 C   0  0  0  0  0  0  0  0  0  0  0  0
   -2.4299  -52.6144  -26.9651 C   0  0  0  0  0  0  0  0  0  0  0  0
   -1.4946  -52.2849  -25.9876 C   0  0  0  0  0  0  0  0  0  0  0  0
   -0.2182  -52.0173  -26.3556 C   0  0  0  0  0  0  0  0  0  0  0  0
    3.3363  -51.1701  -26.3324 C   0  0  0  0  0  0  0  0  0  0  0  0
    3.5597  -49.7290  -26.5556 C   0  0  0  0  0  0  0  0  0  0  0  0
    3.1876  -48.7207  -25.7221 C   0  0  0  0  0  0  0  0  0  0  0  0
    3.4482  -47.3752  -26.0271 C   0  0  0  0  0  0  0  0  0  0  0  0
    4.0931  -47.0293  -27.1888 C   0  0  0  0  0  0  0  0  0  0  0  0
    4.4789  -48.0341  -28.0475 C   0  0  0  0  0  0  0  0  0  0  0  0
    4.2177  -49.3547  -27.7359 C   0  0  0  0  0  0  0  0  0  0  0  0
    0.8708  -50.9809  -17.0793 C   0  0  0  0  0  0  0  0  0  0  0  0
   -0.1416  -51.6533  -17.7771 C   0  0  0  0  0  0  0  0  0  0  0  0
   -1.5277  -52.4782  -16.7710 Br  0  0  0  0  0  0  0  0  0  0  0  0
   -0.1325  -51.7307  -19.1558 C   0  0  0  0  0  0  0  0  0  0  0  0
    0.8624  -51.1584  -19.9125 C   0  0  0  0  0  0  0  0  0  0  0  0
    1.8703  -50.4902  -19.2337 C   0  0  0  0  0  0  0  0  0  0  0  0
    1.8552  -50.4121  -17.8344 C   0  0  0  0  0  0  0  0  0  0  0  0
    3.2711  -49.3651  -17.0479 Br  0  0  0  0  0  0  0  0  0  0  0  0
    0.8639  -50.8947  -15.7126 O   0  0  0  0  0  0  0  0  0  0  0  0
    0.2397  -49.8934  -14.9211 C   0  0  0  0  0  0  0  0  0  0  0  0
    2.2136  -49.8064  -13.5118 O   0  0  0  0  0  0  0  0  0  0  0  0
    1.3348  -49.2121  -14.1964 C   0  0  0  0  0  0  0  0  0  0  0  0
    1.4622  -47.8287  -14.2354 O   0  0  0  0  0  0  0  0  0  0  0  0
    0.8623  -47.1645  -13.8204 H   0  0  0  0  0  0  0  0  0  0  0  0
   -0.7633  -50.4690  -13.9352 C   0  0  0  0  0  0  0  0  0  0  0  0
   -2.1673  -50.1378  -14.2416 C   0  0  0  0  0  0  0  0  0  0  0  0
   -3.1842  -50.9924  -13.7740 C   0  0  0  0  0  0  0  0  0  0  0  0
   -4.5004  -50.6633  -14.0333 C   0  0  0  0  0  0  0  0  0  0  0  0
   -4.8485  -49.5229  -14.7370 C   0  0  0  0  0  0  0  0  0  0  0  0
   -3.8150  -48.7151  -15.1755 C   0  0  0  0  0  0  0  0  0  0  0  0
   -2.4940  -49.0051  -14.9390 C   0  0  0  0  0  0  0  0  0  0  0  0
 33 34  2  0  0  0
 34 35  1  0  0  0
 34 32  1  0  0  0
 32 37  1  0  0  0
 37 38  1  0  0  0
 38 39  2  0  0  0
 39 40  1  0  0  0
 40 41  2  0  0  0
 41 42  1  0  0  0
 42 43  2  0  0  0
 32 31  1  0  0  0
 31 23  1  0  0  0
 23 24  2  0  0  0
 24 25  1  0  0  0
 24 26  1  0  0  0
 26 27  2  0  0  0
 27  1  1  0  0  0
  1  2  2  0  0  0
  2  3  1  0  0  0
  3  4  2  0  0  0
  4  7  1  0  0  0
  7  8  2  0  0  0
  8 16  1  0  0  0
 16 17  1  0  0  0
 17 18  2  0  0  0
 18 19  1  0  0  0
 19 20  2  0  0  0
 20 21  1  0  0  0
 21 22  2  0  0  0
  8  9  1  0  0  0
  9 10  1  0  0  0
 10 11  2  0  0  0
 11 12  1  0  0  0
 12 13  2  0  0  0
 13 14  1  0  0  0
 14 15  2  0  0  0
  4  5  1  0  0  0
  5  6  2  0  0  0
 27 28  1  0  0  0
 28 29  2  0  0  0
 29 30  1  0  0  0
 43 38  1  0  0  0
 29 23  1  0  0  0
  6  1  1  0  0  0
 15  7  1  0  0  0
 22 17  1  0  0  0
 15 10  1  0  0  0
 35 36  1  0  0  0
M  END
> <minimizedAffinity>
-8.42888

> <CNNscore>
0.0804550424

> <CNNaffinity>
6.6705565453

> <CNN_VS>
0.5366799235

> <CNNaffinity_variance>
0.2975576520

$$$$
[H]c1c(F)c(C(=O)N([H])S(=O)(=O)C2([H])C([H])([H])C2([H])[H])c([H])c(C2([H])C([H])([H])C2([H])[H])c1OC([H])([H])C1([H])C([H])([H])C([H])([H])C([H])(C(F)(F)F)C([H])([H])C1([H])[H]


 32 35  0  0  0  0  0  0  0  0999 V2000
   -0.0634  -52.8638  -23.0583 C   0  0  0  0  0  0  0  0  0  0  0  0
    0.7016  -51.7590  -22.6679 C   0  0  0  0  0  0  0  0  0  0  0  0
    0.7527  -51.2928  -21.3934 C   0  0  0  0  0  0  0  0  0  0  0  0
    0.0080  -51.9236  -20.3597 C   0  0  0  0  0  0  0  0  0  0  0  0
   -0.7399  -53.0121  -20.7632 C   0  0  0  0  0  0  0  0  0  0  0  0
   -0.7752  -53.4703  -22.0781 C   0  0  0  0  0  0  0  0  0  0  0  0
   -1.5450  -54.5269  -22.3555 F   0  0  0  0  0  0  0  0  0  0  0  0
   -1.0347  -53.8252  -24.9559 O   0  0  0  0  0  0  0  0  0  0  0  0
   -0.0025  -53.2447  -24.4526 C   0  0  0  0  0  0  0  0  0  0  0  0
    1.0595  -53.0546  -25.3388 N   0  0  0  0  0  0  0  0  0  0  0  0
    1.9302  -52.5929  -25.0638 H   0  0  0  0  0  0  0  0  0  0  0  0
    0.9585  -53.5791  -26.9765 S   0  0  0  0  0  0  0  0  0  0  0  0
    0.2428  -54.9062  -27.0565 O   0  0  0  0  0  0  0  0  0  0  0  0
    2.3167  -53.7645  -27.5818 O   0  0  0  0  0  0  0  0  0  0  0  0
    0.0284  -52.3849  -27.9504 C   0  0  0  0  0  0  0  0  0  0  0  0
   -0.5333  -52.8091  -29.2682 C   0  0  0  0  0  0  0  0  0  0  0  0
   -1.4334  -52.7682  -28.0969 C   0  0  0  0  0  0  0  0  0  0  0  0
    1.5650  -50.0970  -20.9985 C   0  0  0  0  0  0  0  0  0  0  0  0
    1.9414  -49.0608  -21.9658 C   0  0  0  0  0  0  0  0  0  0  0  0
    0.7934  -48.7744  -21.0714 C   0  0  0  0  0  0  0  0  0  0  0  0
    0.1004  -51.4291  -19.1351 O   0  0  0  0  0  0  0  0  0  0  0  0
    0.1023  -51.7211  -17.8602 C   0  0  0  0  0  0  0  0  0  0  0  0
   -0.6286  -50.9685  -16.8169 C   0  0  0  0  0  0  0  0  0  0  0  0
   -0.8228  -51.7296  -15.5191 C   0  0  0  0  0  0  0  0  0  0  0  0
   -2.1222  -51.2449  -14.9401 C   0  0  0  0  0  0  0  0  0  0  0  0
   -2.1394  -49.7801  -14.7511 C   0  0  0  0  0  0  0  0  0  0  0  0
   -1.1779  -48.9328  -15.4763 C   0  0  0  0  0  0  0  0  0  0  0  0
   -0.2772  -49.5858  -16.4845 C   0  0  0  0  0  0  0  0  0  0  0  0
   -3.5770  -49.2224  -14.9086 C   0  0  0  0  0  0  0  0  0  0  0  0
   -3.5911  -48.0213  -15.5467 F   0  0  0  0  0  0  0  0  0  0  0  0
   -4.3265  -50.1064  -15.6730 F   0  0  0  0  0  0  0  0  0  0  0  0
   -4.1919  -49.1501  -13.6846 F   0  0  0  0  0  0  0  0  0  0  0  0
  8  9  2  0  0  0
  9 10  1  0  0  0
 10 12  1  0  0  0
 12 13  2  0  0  0
 12 14  2  0  0  0
 12 15  1  0  0  0
 15 16  1  0  0  0
 16 17  1  0  0  0
  9  1  1  0  0  0
  1  2  2  0  0  0
  2  3  1  0  0  0
  3 18  1  0  0  0
 18 19  1  0  0  0
 19 20  1  0  0  0
  3  4  2  0  0  0
  4 21  1  0  0  0
 21 22  1  0  0  0
 22 23  1  0  0  0
 23 24  1  0  0  0
 24 25  1  0  0  0
 25 26  1  0  0  0
 26 29  1  0  0  0
 29 30  1  0  0  0
 29 31  1  0  0  0
 29 32  1  0  0  0
 26 27  1  0  0  0
 27 28  1  0  0  0
  4  5  1  0  0  0
  5  6  2  0  0  0
  6  7  1  0  0  0
 17 15  1  0  0  0
  6  1  1  0  0  0
 20 18  1  0  0  0
 28 23  1  0  0  0
 10 11  1  0  0  0
M  END
> <minimizedAffinity>
-8.86722

> <CNNscore>
0.2498953044

> <CNNaffinity>
6.5137891769

> <CNN_VS>
1.6277652979

> <CNNaffinity_variance>
0.0449832603

$$$$
[H]c1c(F)c(C(=O)N([H])S(=O)(=O)C2([H])C([H])([H])C2([H])[H])c([H])c(C2([H])C([H])([H])C2([H])[H])c1OC([H])([H])C1([H])C([H])([H])C([H])([H])C([H])(C(F)(F)F)C([H])([H])C1([H])[H]


 32 35  0  0  0  0  0  0  0  0999 V2000
   -0.1375  -52.3862  -22.8448 C   0  0  0  0  0  0  0  0  0  0  0  0
    0.6647  -51.3085  -22.4532 C   0  0  0  0  0  0  0  0  0  0  0  0
    0.8161  -50.9144  -21.1625 C   0  0  0  0  0  0  0  0  0  0  0  0
    0.1461  -51.5983  -20.1116 C   0  0  0  0  0  0  0  0  0  0  0  0
   -0.6399  -52.6591  -20.5167 C   0  0  0  0  0  0  0  0  0  0  0  0
   -0.7787  -53.0430  -21.8484 C   0  0  0  0  0  0  0  0  0  0  0  0
   -1.5767  -54.0788  -22.1245 F   0  0  0  0  0  0  0  0  0  0  0  0
   -0.9833  -51.9920  -24.9891 O   0  0  0  0  0  0  0  0  0  0  0  0
   -0.1856  -52.6890  -24.2586 C   0  0  0  0  0  0  0  0  0  0  0  0
    0.5434  -53.6634  -24.9432 N   0  0  0  0  0  0  0  0  0  0  0  0
    1.2205  -54.2730  -24.4775 H   0  0  0  0  0  0  0  0  0  0  0  0
    0.3550  -53.8888  -26.6406 S   0  0  0  0  0  0  0  0  0  0  0  0
   -1.0571  -53.5550  -27.0581 O   0  0  0  0  0  0  0  0  0  0  0  0
    0.6177  -55.3086  -27.0416 O   0  0  0  0  0  0  0  0  0  0  0  0
    1.4730  -52.7986  -27.5355 C   0  0  0  0  0  0  0  0  0  0  0  0
    2.1065  -51.6585  -26.8070 C   0  0  0  0  0  0  0  0  0  0  0  0
    2.9004  -52.8856  -27.0254 C   0  0  0  0  0  0  0  0  0  0  0  0
    1.6667  -49.7464  -20.7649 C   0  0  0  0  0  0  0  0  0  0  0  0
    2.2690  -48.8513  -21.7584 C   0  0  0  0  0  0  0  0  0  0  0  0
    1.0346  -48.3859  -21.0805 C   0  0  0  0  0  0  0  0  0  0  0  0
    0.3351  -51.1733  -18.8721 O   0  0  0  0  0  0  0  0  0  0  0  0
    0.2517  -51.4929  -17.6066 C   0  0  0  0  0  0  0  0  0  0  0  0
   -0.6585  -50.8560  -16.6294 C   0  0  0  0  0  0  0  0  0  0  0  0
   -0.9500  -51.7023  -15.4046 C   0  0  0  0  0  0  0  0  0  0  0  0
   -2.3446  -51.3466  -14.9723 C   0  0  0  0  0  0  0  0  0  0  0  0
   -2.5001  -49.9001  -14.7171 C   0  0  0  0  0  0  0  0  0  0  0  0
   -1.5266  -48.9455  -15.2733 C   0  0  0  0  0  0  0  0  0  0  0  0
   -0.4605  -49.4730  -16.1894 C   0  0  0  0  0  0  0  0  0  0  0  0
   -3.9470  -49.4394  -15.0286 C   0  0  0  0  0  0  0  0  0  0  0  0
   -4.5909  -50.3055  -15.8564 F   0  0  0  0  0  0  0  0  0  0  0  0
   -4.6707  -49.3818  -13.8452 F   0  0  0  0  0  0  0  0  0  0  0  0
   -3.9372  -48.1666  -15.5398 F   0  0  0  0  0  0  0  0  0  0  0  0
  8  9  2  0  0  0
  9 10  1  0  0  0
 10 12  1  0  0  0
 12 13  2  0  0  0
 12 14  2  0  0  0
 12 15  1  0  0  0
 15 16  1  0  0  0
 16 17  1  0  0  0
  9  1  1  0  0  0
  1  2  2  0  0  0
  2  3  1  0  0  0
  3 18  1  0  0  0
 18 19  1  0  0  0
 19 20  1  0  0  0
  3  4  2  0  0  0
  4 21  1  0  0  0
 21 22  1  0  0  0
 22 23  1  0  0  0
 23 24  1  0  0  0
 24 25  1  0  0  0
 25 26  1  0  0  0
 26 29  1  0  0  0
 29 30  1  0  0  0
 29 31  1  0  0  0
 29 32  1  0  0  0
 26 27  1  0  0  0
 27 28  1  0  0  0
  4  5  1  0  0  0
  5  6  2  0  0  0
  6  7  1  0  0  0
 17 15  1  0  0  0
  6  1  1  0  0  0
 20 18  1  0  0  0
 28 23  1  0  0  0
 10 11  1  0  0  0
M  END
> <minimizedAffinity>
-8.31905

> <CNNscore>
0.2284024358

> <CNNaffinity>
6.2955775261

> <CNN_VS>
1.4379252195

> <CNNaffinity_variance>
0.0413097069

$$$$
[H]c1c(F)c(C(=O)N([H])S(=O)(=O)C2([H])C([H])([H])C2([H])[H])c([H])c(C2([H])C([H])([H])C2([H])[H])c1OC([H])([H])C1([H])C([H])([H])C([H])([H])C([H])(C(F)(F)F)C([H])([H])C1([H])[H]


 32 35  0  0  0  0  0  0  0  0999 V2000
   -0.5179  -53.2555  -22.5081 C   0  0  0  0  0  0  0  0  0  0  0  0
    0.2379  -52.1662  -22.0602 C   0  0  0  0  0  0  0  0  0  0  0  0
    0.2806  -51.7632  -20.7641 C   0  0  0  0  0  0  0  0  0  0  0  0
   -0.4638  -52.4493  -19.7661 C   0  0  0  0  0  0  0  0  0  0  0  0
   -1.2026  -53.5215  -20.2262 C   0  0  0  0  0  0  0  0  0  0  0  0
   -1.2294  -53.9144  -21.5623 C   0  0  0  0  0  0  0  0  0  0  0  0
   -1.9908  -54.9610  -21.8949 F   0  0  0  0  0  0  0  0  0  0  0  0
   -1.1628  -54.5476  -24.3474 O   0  0  0  0  0  0  0  0  0  0  0  0
   -0.4487  -53.5666  -23.9192 C   0  0  0  0  0  0  0  0  0  0  0  0
    0.3117  -52.9190  -24.8948 N   0  0  0  0  0  0  0  0  0  0  0  0
    0.9100  -52.1163  -24.6837 H   0  0  0  0  0  0  0  0  0  0  0  0
    0.2740  -53.4308  -26.5393 S   0  0  0  0  0  0  0  0  0  0  0  0
   -1.1273  -53.3163  -27.0897 O   0  0  0  0  0  0  0  0  0  0  0  0
    0.6968  -54.8612  -26.6824 O   0  0  0  0  0  0  0  0  0  0  0  0
    1.3506  -52.3871  -27.5349 C   0  0  0  0  0  0  0  0  0  0  0  0
    2.6188  -51.8760  -26.9329 C   0  0  0  0  0  0  0  0  0  0  0  0
    2.6854  -53.0467  -27.8322 C   0  0  0  0  0  0  0  0  0  0  0  0
    1.0831  -50.5830  -20.3071 C   0  0  0  0  0  0  0  0  0  0  0  0
    1.9530  -49.8353  -21.2209 C   0  0  0  0  0  0  0  0  0  0  0  0
    0.6245  -49.2518  -20.9134 C   0  0  0  0  0  0  0  0  0  0  0  0
   -0.3799  -52.0153  -18.5182 O   0  0  0  0  0  0  0  0  0  0  0  0
   -0.5158  -52.3434  -17.2594 C   0  0  0  0  0  0  0  0  0  0  0  0
   -1.7849  -52.2879  -16.5010 C   0  0  0  0  0  0  0  0  0  0  0  0
   -2.0694  -50.9436  -15.8583 C   0  0  0  0  0  0  0  0  0  0  0  0
   -2.8443  -51.2349  -14.6040 C   0  0  0  0  0  0  0  0  0  0  0  0
   -4.0721  -52.0110  -14.8716 C   0  0  0  0  0  0  0  0  0  0  0  0
   -4.2118  -52.7557  -16.1343 C   0  0  0  0  0  0  0  0  0  0  0  0
   -3.0369  -52.7943  -17.0682 C   0  0  0  0  0  0  0  0  0  0  0  0
   -4.4206  -52.9211  -13.6663 C   0  0  0  0  0  0  0  0  0  0  0  0
   -5.5754  -52.5402  -13.0566 F   0  0  0  0  0  0  0  0  0  0  0  0
   -4.5992  -54.2225  -14.1156 F   0  0  0  0  0  0  0  0  0  0  0  0
   -3.3721  -52.9561  -12.7826 F   0  0  0  0  0  0  0  0  0  0  0  0
  8  9  2  0  0  0
  9 10  1  0  0  0
 10 12  1  0  0  0
 12 13  2  0  0  0
 12 14  2  0  0  0
 12 15  1  0  0  0
 15 16  1  0  0  0
 16 17  1  0  0  0
  9  1  1  0  0  0
  1  2  2  0  0  0
  2  3  1  0  0  0
  3 18  1  0  0  0
 18 19  1  0  0  0
 19 20  1  0  0  0
  3  4  2  0  0  0
  4 21  1  0  0  0
 21 22  1  0  0  0
 22 23  1  0  0  0
 23 24  1  0  0  0
 24 25  1  0  0  0
 25 26  1  0  0  0
 26 29  1  0  0  0
 29 30  1  0  0  0
 29 31  1  0  0  0
 29 32  1  0  0  0
 26 27  1  0  0  0
 27 28  1  0  0  0
  4  5  1  0  0  0
  5  6  2  0  0  0
  6  7  1  0  0  0
 17 15  1  0  0  0
  6  1  1  0  0  0
 20 18  1  0  0  0
 28 23  1  0  0  0
 10 11  1  0  0  0
M  END
> <minimizedAffinity>
-8.36006

> <CNNscore>
0.2126049995

> <CNNaffinity>
6.3197321892

> <CNN_VS>
1.3436067104

> <CNNaffinity_variance>
0.0847337544

$$$$
[H]c1c(F)c(C(=O)N([H])S(=O)(=O)C2([H])C([H])([H])C2([H])[H])c([H])c(C2([H])C([H])([H])C2([H])[H])c1OC([H])([H])C1([H])C([H])([H])C([H])([H])C([H])(C(F)(F)F)C([H])([H])C1([H])[H]


 32 35  0  0  0  0  0  0  0  0999 V2000
    0.1438  -53.0807  -23.0843 C   0  0  0  0  0  0  0  0  0  0  0  0
    0.8166  -51.9006  -22.7483 C   0  0  0  0  0  0  0  0  0  0  0  0
    1.0227  -51.4908  -21.4701 C   0  0  0  0  0  0  0  0  0  0  0  0
    0.5503  -52.2646  -20.3751 C   0  0  0  0  0  0  0  0  0  0  0  0
   -0.1101  -53.4257  -20.7256 C   0  0  0  0  0  0  0  0  0  0  0  0
   -0.3087  -53.8234  -22.0457 C   0  0  0  0  0  0  0  0  0  0  0  0
   -0.9732  -54.9616  -22.2664 F   0  0  0  0  0  0  0  0  0  0  0  0
   -1.1352  -53.7761  -24.9144 O   0  0  0  0  0  0  0  0  0  0  0  0
    0.0159  -53.3852  -24.4928 C   0  0  0  0  0  0  0  0  0  0  0  0
    1.0076  -53.3036  -25.4722 N   0  0  0  0  0  0  0  0  0  0  0  0
    1.9605  -52.9929  -25.2664 H   0  0  0  0  0  0  0  0  0  0  0  0
    0.6759  -53.7118  -27.1126 S   0  0  0  0  0  0  0  0  0  0  0  0
   -0.1838  -54.9513  -27.1786 O   0  0  0  0  0  0  0  0  0  0  0  0
    1.9335  -53.9968  -27.8759 O   0  0  0  0  0  0  0  0  0  0  0  0
   -0.2181  -52.3705  -27.9133 C   0  0  0  0  0  0  0  0  0  0  0  0
   -0.6961  -52.5579  -29.3163 C   0  0  0  0  0  0  0  0  0  0  0  0
   -1.6621  -52.7323  -28.2117 C   0  0  0  0  0  0  0  0  0  0  0  0
    1.7310  -50.2144  -21.1311 C   0  0  0  0  0  0  0  0  0  0  0  0
    1.9577  -49.1641  -22.1293 C   0  0  0  0  0  0  0  0  0  0  0  0
    0.8303  -48.9751  -21.1842 C   0  0  0  0  0  0  0  0  0  0  0  0
    0.7847  -51.8189  -19.1507 O   0  0  0  0  0  0  0  0  0  0  0  0
    0.3751  -51.0074  -18.2102 C   0  0  0  0  0  0  0  0  0  0  0  0
   -0.7416  -51.2828  -17.2797 C   0  0  0  0  0  0  0  0  0  0  0  0
   -1.1293  -52.7465  -17.1860 C   0  0  0  0  0  0  0  0  0  0  0  0
   -2.6049  -52.7713  -16.9027 C   0  0  0  0  0  0  0  0  0  0  0  0
   -2.9547  -52.0091  -15.6868 C   0  0  0  0  0  0  0  0  0  0  0  0
   -2.0150  -51.0122  -15.1470 C   0  0  0  0  0  0  0  0  0  0  0  0
   -0.7668  -50.7188  -15.9280 C   0  0  0  0  0  0  0  0  0  0  0  0
   -4.3756  -51.4017  -15.8087 C   0  0  0  0  0  0  0  0  0  0  0  0
   -4.3676  -50.0504  -15.6542 F   0  0  0  0  0  0  0  0  0  0  0  0
   -4.8783  -51.6710  -17.0745 F   0  0  0  0  0  0  0  0  0  0  0  0
   -5.2251  -52.0059  -14.9171 F   0  0  0  0  0  0  0  0  0  0  0  0
  8  9  2  0  0  0
  9 10  1  0  0  0
 10 12  1  0  0  0
 12 13  2  0  0  0
 12 14  2  0  0  0
 12 15  1  0  0  0
 15 16  1  0  0  0
 16 17  1  0  0  0
  9  1  1  0  0  0
  1  2  2  0  0  0
  2  3  1  0  0  0
  3 18  1  0  0  0
 18 19  1  0  0  0
 19 20  1  0  0  0
  3  4  2  0  0  0
  4 21  1  0  0  0
 21 22  1  0  0  0
 22 23  1  0  0  0
 23 24  1  0  0  0
 24 25  1  0  0  0
 25 26  1  0  0  0
 26 29  1  0  0  0
 29 30  1  0  0  0
 29 31  1  0  0  0
 29 32  1  0  0  0
 26 27  1  0  0  0
 27 28  1  0  0  0
  4  5  1  0  0  0
  5  6  2  0  0  0
  6  7  1  0  0  0
 17 15  1  0  0  0
  6  1  1  0  0  0
 20 18  1  0  0  0
 28 23  1  0  0  0
 10 11  1  0  0  0
M  END
> <minimizedAffinity>
-9.23242

> <CNNscore>
0.2121701688

> <CNNaffinity>
6.6050405502

> <CNN_VS>
1.4013925791

> <CNNaffinity_variance>
0.0974619761

$$$$
[H]c1c(F)c(C(=O)N([H])S(=O)(=O)C2([H])C([H])([H])C2([H])[H])c([H])c(C2([H])C([H])([H])C2([H])[H])c1OC([H])([H])C1([H])C([H])([H])C([H])([H])C([H])(C(F)(F)F)C([H])([H])C1([H])[H]


 32 35  0  0  0  0  0  0  0  0999 V2000
    0.0530  -51.8346  -19.7916 C   0  0  0  0  0  0  0  0  0  0  0  0
    0.5895  -50.6088  -20.2012 C   0  0  0  0  0  0  0  0  0  0  0  0
    0.9985  -50.3541  -21.4709 C   0  0  0  0  0  0  0  0  0  0  0  0
    0.8991  -51.3514  -22.4790 C   0  0  0  0  0  0  0  0  0  0  0  0
    0.3668  -52.5538  -22.0568 C   0  0  0  0  0  0  0  0  0  0  0  0
   -0.0452  -52.7897  -20.7473 C   0  0  0  0  0  0  0  0  0  0  0  0
   -0.5345  -53.9971  -20.4498 F   0  0  0  0  0  0  0  0  0  0  0  0
   -0.8374  -53.0701  -18.0170 O   0  0  0  0  0  0  0  0  0  0  0  0
   -0.3479  -51.9455  -18.4060 C   0  0  0  0  0  0  0  0  0  0  0  0
   -0.2658  -50.9630  -17.4175 N   0  0  0  0  0  0  0  0  0  0  0  0
    0.1174  -50.0315  -17.5974 H   0  0  0  0  0  0  0  0  0  0  0  0
   -0.7978  -51.2711  -15.8082 S   0  0  0  0  0  0  0  0  0  0  0  0
    0.1153  -52.2700  -15.1388 O   0  0  0  0  0  0  0  0  0  0  0  0
   -2.1827  -51.8429  -15.7844 O   0  0  0  0  0  0  0  0  0  0  0  0
   -0.7623  -49.7511  -14.8451 C   0  0  0  0  0  0  0  0  0  0  0  0
   -0.9001  -48.4435  -15.5545 C   0  0  0  0  0  0  0  0  0  0  0  0
   -2.0871  -49.0102  -14.8811 C   0  0  0  0  0  0  0  0  0  0  0  0
    1.5865  -49.0396  -21.8859 C   0  0  0  0  0  0  0  0  0  0  0  0
    2.0500  -48.0526  -20.9052 C   0  0  0  0  0  0  0  0  0  0  0  0
    3.0776  -48.8990  -21.5589 C   0  0  0  0  0  0  0  0  0  0  0  0
    1.3083  -51.0453  -23.7003 O   0  0  0  0  0  0  0  0  0  0  0  0
    1.6675  -51.5286  -24.8614 C   0  0  0  0  0  0  0  0  0  0  0  0
    0.7405  -52.0830  -25.8725 C   0  0  0  0  0  0  0  0  0  0  0  0
    0.8422  -53.5855  -26.0549 C   0  0  0  0  0  0  0  0  0  0  0  0
    0.5043  -53.8562  -27.4940 C   0  0  0  0  0  0  0  0  0  0  0  0
   -0.8220  -53.3242  -27.8676 C   0  0  0  0  0  0  0  0  0  0  0  0
   -1.4600  -52.2881  -27.0381 C   0  0  0  0  0  0  0  0  0  0  0  0
   -0.6780  -51.7181  -25.8902 C   0  0  0  0  0  0  0  0  0  0  0  0
   -0.8479  -52.9119  -29.3616 C   0  0  0  0  0  0  0  0  0  0  0  0
   -1.6943  -53.6881  -30.0903 F   0  0  0  0  0  0  0  0  0  0  0  0
   -1.2953  -51.6017  -29.4641 F   0  0  0  0  0  0  0  0  0  0  0  0
    0.4228  -52.9296  -29.8780 F   0  0  0  0  0  0  0  0  0  0  0  0
  8  9  2  0  0  0
  9 10  1  0  0  0
 10 12  1  0  0  0
 12 13  2  0  0  0
 12 14  2  0  0  0
 12 15  1  0  0  0
 15 16  1  0  0  0
 16 17  1  0  0  0
  9  1  1  0  0  0
  1  2  2  0  0  0
  2  3  1  0  0  0
  3 18  1  0  0  0
 18 19  1  0  0  0
 19 20  1  0  0  0
  3  4  2  0  0  0
  4 21  1  0  0  0
 21 22  1  0  0  0
 22 23  1  0  0  0
 23 24  1  0  0  0
 24 25  1  0  0  0
 25 26  1  0  0  0
 26 29  1  0  0  0
 29 30  1  0  0  0
 29 31  1  0  0  0
 29 32  1  0  0  0
 26 27  1  0  0  0
 27 28  1  0  0  0
  4  5  1  0  0  0
  5  6  2  0  0  0
  6  7  1  0  0  0
 17 15  1  0  0  0
  6  1  1  0  0  0
 20 18  1  0  0  0
 28 23  1  0  0  0
 10 11  1  0  0  0
M  END
> <minimizedAffinity>
-8.25377

> <CNNscore>
0.2060431689

> <CNNaffinity>
6.4254188538

> <CNN_VS>
1.3239136934

> <CNNaffinity_variance>
0.1972088069

$$$$
[H]c1c(F)c(C(=O)N([H])S(=O)(=O)C2([H])C([H])([H])C2([H])[H])c([H])c(C2([H])C([H])([H])C2([H])[H])c1OC([H])([H])C1([H])C([H])([H])C([H])([H])C([H])(C(F)(F)F)C([H])([H])C1([H])[H]


 32 35  0  0  0  0  0  0  0  0999 V2000
    0.1256  -51.2726  -18.2780 C   0  0  0  0  0  0  0  0  0  0  0  0
    0.6300  -50.5661  -19.3756 C   0  0  0  0  0  0  0  0  0  0  0  0
    0.5929  -51.0318  -20.6507 C   0  0  0  0  0  0  0  0  0  0  0  0
    0.0220  -52.3004  -20.9434 C   0  0  0  0  0  0  0  0  0  0  0  0
   -0.4712  -52.9826  -19.8485 C   0  0  0  0  0  0  0  0  0  0  0  0
   -0.4205  -52.4822  -18.5496 C   0  0  0  0  0  0  0  0  0  0  0  0
   -0.9185  -53.2364  -17.5652 F   0  0  0  0  0  0  0  0  0  0  0  0
    1.3331  -50.7759  -16.3379 O   0  0  0  0  0  0  0  0  0  0  0  0
    0.2289  -50.6353  -16.9834 C   0  0  0  0  0  0  0  0  0  0  0  0
   -0.7413  -49.8688  -16.3349 N   0  0  0  0  0  0  0  0  0  0  0  0
   -1.6558  -49.6724  -16.7497 H   0  0  0  0  0  0  0  0  0  0  0  0
   -0.4452  -49.1843  -14.7821 S   0  0  0  0  0  0  0  0  0  0  0  0
    0.8105  -48.3465  -14.8116 O   0  0  0  0  0  0  0  0  0  0  0  0
   -0.2536  -50.2432  -13.7392 O   0  0  0  0  0  0  0  0  0  0  0  0
   -1.8152  -48.1183  -14.3064 C   0  0  0  0  0  0  0  0  0  0  0  0
   -3.0052  -48.0277  -15.2051 C   0  0  0  0  0  0  0  0  0  0  0  0
   -3.0840  -48.8993  -14.0143 C   0  0  0  0  0  0  0  0  0  0  0  0
    1.1542  -50.2671  -21.8108 C   0  0  0  0  0  0  0  0  0  0  0  0
    2.0191  -49.0975  -21.6237 C   0  0  0  0  0  0  0  0  0  0  0  0
    2.6761  -50.3864  -21.9513 C   0  0  0  0  0  0  0  0  0  0  0  0
    0.0085  -52.7010  -22.2051 O   0  0  0  0  0  0  0  0  0  0  0  0
   -0.6667  -53.3581  -23.1124 C   0  0  0  0  0  0  0  0  0  0  0  0
   -0.4692  -53.2319  -24.5732 C   0  0  0  0  0  0  0  0  0  0  0  0
    0.2086  -51.9444  -25.0023 C   0  0  0  0  0  0  0  0  0  0  0  0
   -0.3414  -51.6146  -26.3614 C   0  0  0  0  0  0  0  0  0  0  0  0
   -0.1429  -52.7139  -27.3278 C   0  0  0  0  0  0  0  0  0  0  0  0
    0.1360  -54.0769  -26.8453 C   0  0  0  0  0  0  0  0  0  0  0  0
    0.0939  -54.3277  -25.3657 C   0  0  0  0  0  0  0  0  0  0  0  0
   -1.2830  -52.7352  -28.3777 C   0  0  0  0  0  0  0  0  0  0  0  0
   -2.4845  -52.4045  -27.8327 F   0  0  0  0  0  0  0  0  0  0  0  0
   -1.0066  -51.8025  -29.3682 F   0  0  0  0  0  0  0  0  0  0  0  0
   -1.3303  -53.9576  -28.9981 F   0  0  0  0  0  0  0  0  0  0  0  0
  8  9  2  0  0  0
  9 10  1  0  0  0
 10 12  1  0  0  0
 12 13  2  0  0  0
 12 14  2  0  0  0
 12 15  1  0  0  0
 15 16  1  0  0  0
 16 17  1  0  0  0
  9  1  1  0  0  0
  1  2  2  0  0  0
  2  3  1  0  0  0
  3 18  1  0  0  0
 18 19  1  0  0  0
 19 20  1  0  0  0
  3  4  2  0  0  0
  4 21  1  0  0  0
 21 22  1  0  0  0
 22 23  1  0  0  0
 23 24  1  0  0  0
 24 25  1  0  0  0
 25 26  1  0  0  0
 26 29  1  0  0  0
 29 30  1  0  0  0
 29 31  1  0  0  0
 29 32  1  0  0  0
 26 27  1  0  0  0
 27 28  1  0  0  0
  4  5  1  0  0  0
  5  6  2  0  0  0
  6  7  1  0  0  0
 17 15  1  0  0  0
  6  1  1  0  0  0
 20 18  1  0  0  0
 28 23  1  0  0  0
 10 11  1  0  0  0
M  END
> <minimizedAffinity>
-7.78582

> <CNNscore>
0.2046424299

> <CNNaffinity>
6.4456090927

> <CNN_VS>
1.3190450668

> <CNNaffinity_variance>
0.1652318835

$$$$
[H]c1c(F)c(C(=O)N([H])S(=O)(=O)C2([H])C([H])([H])C2([H])[H])c([H])c(C2([H])C([H])([H])C2([H])[H])c1OC([H])([H])C1([H])C([H])([H])C([H])([H])C([H])(C(F)(F)F)C([H])([H])C1([H])[H]


 32 35  0  0  0  0  0  0  0  0999 V2000
    0.5127  -52.6955  -23.7478 C   0  0  0  0  0  0  0  0  0  0  0  0
    1.0670  -51.6546  -22.9943 C   0  0  0  0  0  0  0  0  0  0  0  0
    1.0014  -51.5900  -21.6395 C   0  0  0  0  0  0  0  0  0  0  0  0
    0.3455  -52.6085  -20.8955 C   0  0  0  0  0  0  0  0  0  0  0  0
   -0.1943  -53.6275  -21.6554 C   0  0  0  0  0  0  0  0  0  0  0  0
   -0.1133  -53.6700  -23.0453 C   0  0  0  0  0  0  0  0  0  0  0  0
   -0.6837  -54.7000  -23.6773 F   0  0  0  0  0  0  0  0  0  0  0  0
    0.2329  -51.5787  -25.7833 O   0  0  0  0  0  0  0  0  0  0  0  0
    0.6776  -52.6266  -25.1834 C   0  0  0  0  0  0  0  0  0  0  0  0
    1.2739  -53.5758  -26.0158 N   0  0  0  0  0  0  0  0  0  0  0  0
    1.6780  -54.4452  -25.6585 H   0  0  0  0  0  0  0  0  0  0  0  0
    1.3807  -53.3276  -27.7171 S   0  0  0  0  0  0  0  0  0  0  0  0
    2.3631  -54.2993  -28.3258 O   0  0  0  0  0  0  0  0  0  0  0  0
    1.8560  -51.9448  -28.0447 O   0  0  0  0  0  0  0  0  0  0  0  0
   -0.2243  -53.6049  -28.4829 C   0  0  0  0  0  0  0  0  0  0  0  0
   -1.1920  -52.4694  -28.5625 C   0  0  0  0  0  0  0  0  0  0  0  0
   -0.4013  -52.8092  -29.7638 C   0  0  0  0  0  0  0  0  0  0  0  0
    1.5866  -50.4576  -20.8515 C   0  0  0  0  0  0  0  0  0  0  0  0
    2.1175  -49.2540  -21.4999 C   0  0  0  0  0  0  0  0  0  0  0  0
    0.7581  -49.1692  -20.9126 C   0  0  0  0  0  0  0  0  0  0  0  0
    0.3171  -52.4960  -19.5767 O   0  0  0  0  0  0  0  0  0  0  0  0
   -0.4466  -52.2803  -18.5370 C   0  0  0  0  0  0  0  0  0  0  0  0
   -0.0152  -51.6046  -17.2935 C   0  0  0  0  0  0  0  0  0  0  0  0
    0.2607  -50.1215  -17.4529 C   0  0  0  0  0  0  0  0  0  0  0  0
    1.3451  -49.7892  -16.4668 C   0  0  0  0  0  0  0  0  0  0  0  0
    0.9766  -50.1561  -15.0843 C   0  0  0  0  0  0  0  0  0  0  0  0
   -0.1066  -51.1240  -14.8433 C   0  0  0  0  0  0  0  0  0  0  0  0
   -0.7298  -51.8006  -16.0299 C   0  0  0  0  0  0  0  0  0  0  0  0
    2.2347  -50.5377  -14.2632 C   0  0  0  0  0  0  0  0  0  0  0  0
    3.3385  -50.6603  -15.0484 F   0  0  0  0  0  0  0  0  0  0  0  0
    2.4943  -49.5365  -13.3371 F   0  0  0  0  0  0  0  0  0  0  0  0
    1.9991  -51.6810  -13.5429 F   0  0  0  0  0  0  0  0  0  0  0  0
  8  9  2  0  0  0
  9 10  1  0  0  0
 10 12  1  0  0  0
 12 13  2  0  0  0
 12 14  2  0  0  0
 12 15  1  0  0  0
 15 16  1  0  0  0
 16 17  1  0  0  0
  9  1  1  0  0  0
  1  2  2  0  0  0
  2  3  1  0  0  0
  3 18  1  0  0  0
 18 19  1  0  0  0
 19 20  1  0  0  0
  3  4  2  0  0  0
  4 21  1  0  0  0
 21 22  1  0  0  0
 22 23  1  0  0  0
 23 24  1  0  0  0
 24 25  1  0  0  0
 25 26  1  0  0  0
 26 29  1  0  0  0
 29 30  1  0  0  0
 29 31  1  0  0  0
 29 32  1  0  0  0
 26 27  1  0  0  0
 27 28  1  0  0  0
  4  5  1  0  0  0
  5  6  2  0  0  0
  6  7  1  0  0  0
 17 15  1  0  0  0
  6  1  1  0  0  0
 20 18  1  0  0  0
 28 23  1  0  0  0
 10 11  1  0  0  0
M  END
> <minimizedAffinity>
-7.93906

> <CNNscore>
0.1859075278

> <CNNaffinity>
6.4752578735

> <CNN_VS>
1.2037991285

> <CNNaffinity_variance>
0.0675175935

$$$$
[H]c1c(F)c(C(=O)N([H])S(=O)(=O)C2([H])C([H])([H])C2([H])[H])c([H])c(C2([H])C([H])([H])C2([H])[H])c1OC([H])([H])C1([H])C([H])([H])C([H])([H])C([H])(C(F)(F)F)C([H])([H])C1([H])[H]


 32 35  0  0  0  0  0  0  0  0999 V2000
    1.6347  -49.7750  -21.1221 C   0  0  0  0  0  0  0  0  0  0  0  0
    0.8172  -50.7601  -21.6875 C   0  0  0  0  0  0  0  0  0  0  0  0
    0.0598  -51.6185  -20.9571 C   0  0  0  0  0  0  0  0  0  0  0  0
    0.0595  -51.5575  -19.5368 C   0  0  0  0  0  0  0  0  0  0  0  0
    0.8710  -50.5791  -18.9968 C   0  0  0  0  0  0  0  0  0  0  0  0
    1.6389  -49.7107  -19.7690 C   0  0  0  0  0  0  0  0  0  0  0  0
    2.3970  -48.8101  -19.1366 F   0  0  0  0  0  0  0  0  0  0  0  0
    2.1059  -47.6705  -22.0262 O   0  0  0  0  0  0  0  0  0  0  0  0
    2.3715  -48.9295  -22.0359 C   0  0  0  0  0  0  0  0  0  0  0  0
    3.3573  -49.3186  -22.9448 N   0  0  0  0  0  0  0  0  0  0  0  0
    3.6676  -50.2891  -23.0386 H   0  0  0  0  0  0  0  0  0  0  0  0
    4.1326  -48.1678  -23.9656 S   0  0  0  0  0  0  0  0  0  0  0  0
    4.9767  -47.2246  -23.1423 O   0  0  0  0  0  0  0  0  0  0  0  0
    3.1373  -47.3383  -24.7184 O   0  0  0  0  0  0  0  0  0  0  0  0
    5.2142  -49.0086  -25.1329 C   0  0  0  0  0  0  0  0  0  0  0  0
    6.6850  -48.7551  -25.0658 C   0  0  0  0  0  0  0  0  0  0  0  0
    6.1523  -49.9893  -24.4522 C   0  0  0  0  0  0  0  0  0  0  0  0
   -0.7964  -52.6783  -21.5812 C   0  0  0  0  0  0  0  0  0  0  0  0
   -0.5220  -53.2081  -22.9210 C   0  0  0  0  0  0  0  0  0  0  0  0
   -0.0820  -54.0226  -21.7621 C   0  0  0  0  0  0  0  0  0  0  0  0
   -0.7023  -52.4157  -18.8767 O   0  0  0  0  0  0  0  0  0  0  0  0
   -1.0551  -52.8424  -17.6917 C   0  0  0  0  0  0  0  0  0  0  0  0
   -1.6547  -52.0020  -16.6318 C   0  0  0  0  0  0  0  0  0  0  0  0
   -3.0439  -52.4351  -16.2033 C   0  0  0  0  0  0  0  0  0  0  0  0
   -3.7658  -51.1818  -15.7953 C   0  0  0  0  0  0  0  0  0  0  0  0
   -3.0476  -50.4404  -14.7388 C   0  0  0  0  0  0  0  0  0  0  0  0
   -1.6175  -50.6984  -14.5006 C   0  0  0  0  0  0  0  0  0  0  0  0
   -0.9019  -51.6358  -15.4297 C   0  0  0  0  0  0  0  0  0  0  0  0
   -3.3086  -48.9174  -14.8617 C   0  0  0  0  0  0  0  0  0  0  0  0
   -4.5578  -48.6501  -15.3287 F   0  0  0  0  0  0  0  0  0  0  0  0
   -3.2023  -48.3349  -13.6060 F   0  0  0  0  0  0  0  0  0  0  0  0
   -2.3433  -48.3348  -15.6429 F   0  0  0  0  0  0  0  0  0  0  0  0
  8  9  2  0  0  0
  9 10  1  0  0  0
 10 12  1  0  0  0
 12 13  2  0  0  0
 12 14  2  0  0  0
 12 15  1  0  0  0
 15 16  1  0  0  0
 16 17  1  0  0  0
  9  1  1  0  0  0
  1  2  2  0  0  0
  2  3  1  0  0  0
  3 18  1  0  0  0
 18 19  1  0  0  0
 19 20  1  0  0  0
  3  4  2  0  0  0
  4 21  1  0  0  0
 21 22  1  0  0  0
 22 23  1  0  0  0
 23 24  1  0  0  0
 24 25  1  0  0  0
 25 26  1  0  0  0
 26 29  1  0  0  0
 29 30  1  0  0  0
 29 31  1  0  0  0
 29 32  1  0  0  0
 26 27  1  0  0  0
 27 28  1  0  0  0
  4  5  1  0  0  0
  5  6  2  0  0  0
  6  7  1  0  0  0
 17 15  1  0  0  0
  6  1  1  0  0  0
 20 18  1  0  0  0
 28 23  1  0  0  0
 10 11  1  0  0  0
M  END
> <minimizedAffinity>
-6.64816

> <CNNscore>
0.1832723320

> <CNNaffinity>
6.2157225609

> <CNN_VS>
1.1391699314

> <CNNaffinity_variance>
0.1602293253

$$$$
[H]c1c(F)c(C(=O)N([H])S(=O)(=O)C2([H])C([H])([H])C2([H])[H])c([H])c(C2([H])C([H])([H])C2([H])[H])c1OC([H])([H])C1([H])C([H])([H])C([H])([H])C([H])(C(F)(F)F)C([H])([H])C1([H])[H]


 32 35  0  0  0  0  0  0  0  0999 V2000
    1.0480  -51.5714  -23.7940 C   0  0  0  0  0  0  0  0  0  0  0  0
    0.1490  -52.3188  -23.0249 C   0  0  0  0  0  0  0  0  0  0  0  0
   -0.1469  -52.0373  -21.7298 C   0  0  0  0  0  0  0  0  0  0  0  0
    0.4611  -50.9347  -21.0698 C   0  0  0  0  0  0  0  0  0  0  0  0
    1.3443  -50.2085  -21.8443 C   0  0  0  0  0  0  0  0  0  0  0  0
    1.6308  -50.5187  -23.1716 C   0  0  0  0  0  0  0  0  0  0  0  0
    2.5122  -49.7520  -23.8205 F   0  0  0  0  0  0  0  0  0  0  0  0
    1.6989  -51.1184  -25.9940 O   0  0  0  0  0  0  0  0  0  0  0  0
    1.2473  -51.9917  -25.1639 C   0  0  0  0  0  0  0  0  0  0  0  0
    1.0069  -53.2550  -25.7076 N   0  0  0  0  0  0  0  0  0  0  0  0
    0.6602  -54.0384  -25.1481 H   0  0  0  0  0  0  0  0  0  0  0  0
    1.3000  -53.5786  -27.3740 S   0  0  0  0  0  0  0  0  0  0  0  0
    0.9082  -54.9982  -27.7070 O   0  0  0  0  0  0  0  0  0  0  0  0
    2.7492  -53.4200  -27.7208 O   0  0  0  0  0  0  0  0  0  0  0  0
    0.3161  -52.4739  -28.3992 C   0  0  0  0  0  0  0  0  0  0  0  0
   -0.6280  -53.0635  -29.3958 C   0  0  0  0  0  0  0  0  0  0  0  0
   -1.1701  -52.5820  -28.1082 C   0  0  0  0  0  0  0  0  0  0  0  0
   -1.1000  -52.8605  -20.9175 C   0  0  0  0  0  0  0  0  0  0  0  0
   -1.6799  -54.1066  -21.4293 C   0  0  0  0  0  0  0  0  0  0  0  0
   -0.5349  -54.2210  -20.4933 C   0  0  0  0  0  0  0  0  0  0  0  0
    0.1308  -50.7047  -19.8086 O   0  0  0  0  0  0  0  0  0  0  0  0
    0.4432  -50.9395  -18.5604 C   0  0  0  0  0  0  0  0  0  0  0  0
   -0.5316  -51.1494  -17.4674 C   0  0  0  0  0  0  0  0  0  0  0  0
   -0.9653  -52.5918  -17.2865 C   0  0  0  0  0  0  0  0  0  0  0  0
   -2.3811  -52.5434  -16.7847 C   0  0  0  0  0  0  0  0  0  0  0  0
   -2.5094  -51.7490  -15.5461 C   0  0  0  0  0  0  0  0  0  0  0  0
   -1.4557  -50.7900  -15.1739 C   0  0  0  0  0  0  0  0  0  0  0  0
   -0.3277  -50.5664  -16.1391 C   0  0  0  0  0  0  0  0  0  0  0  0
   -3.9040  -51.0772  -15.4661 C   0  0  0  0  0  0  0  0  0  0  0  0
   -4.5583  -51.3956  -14.3168 F   0  0  0  0  0  0  0  0  0  0  0  0
   -3.7463  -49.6980  -15.4845 F   0  0  0  0  0  0  0  0  0  0  0  0
   -4.6465  -51.3978  -16.5740 F   0  0  0  0  0  0  0  0  0  0  0  0
  8  9  2  0  0  0
  9 10  1  0  0  0
 10 12  1  0  0  0
 12 13  2  0  0  0
 12 14  2  0  0  0
 12 15  1  0  0  0
 15 16  1  0  0  0
 16 17  1  0  0  0
  9  1  1  0  0  0
  1  2  2  0  0  0
  2  3  1  0  0  0
  3 18  1  0  0  0
 18 19  1  0  0  0
 19 20  1  0  0  0
  3  4  2  0  0  0
  4 21  1  0  0  0
 21 22  1  0  0  0
 22 23  1  0  0  0
 23 24  1  0  0  0
 24 25  1  0  0  0
 25 26  1  0  0  0
 26 29  1  0  0  0
 29 30  1  0  0  0
 29 31  1  0  0  0
 29 32  1  0  0  0
 26 27  1  0  0  0
 27 28  1  0  0  0
  4  5  1  0  0  0
  5  6  2  0  0  0
  6  7  1  0  0  0
 17 15  1  0  0  0
  6  1  1  0  0  0
 20 18  1  0  0  0
 28 23  1  0  0  0
 10 11  1  0  0  0
M  END
> <minimizedAffinity>
-8.65572

> <CNNscore>
0.1506031305

> <CNNaffinity>
6.3238706589

> <CNN_VS>
0.9523947239

> <CNNaffinity_variance>
0.1522405297

$$$$
[H]OC(=O)C1=C([H])[C@@]([H])(O[C@@]([H])(C([H])([H])C([H])([H])[H])C([H])([H])C([H])([H])C([H])([H])C([H])([H])C([H])([H])C([H])([H])C([H])([H])[H])[C@]([H])(N([H])C(=O)C([H])([H])[H])[C@@]([H])(N([H])[H])C1([H])[H]


 29 29  0  0  0  0  0  0  0  0999 V2000
    1.0873  -50.8876  -21.5951 C   0  0  0  0  0  0  0  0  0  0  0  0
    2.1923  -50.1999  -22.3736 C   0  0  0  0  0  0  0  0  0  0  0  0
    2.2728  -48.8716  -22.2900 C   0  0  0  0  0  0  0  0  0  0  0  0
    1.2215  -48.2683  -21.3864 C   0  0  0  0  0  0  0  0  0  0  0  0
    1.4482  -48.9293  -20.0512 C   0  0  0  0  0  0  0  0  0  0  0  0
    2.7392  -48.5167  -19.5090 N   0  0  0  0  0  0  0  0  0  0  0  0
    1.3557  -50.4247  -20.1803 C   0  0  0  0  0  0  0  0  0  0  0  0
    3.1316  -47.7090  -20.0408 H   0  0  0  0  0  0  0  0  0  0  0  0
    2.6008  -48.2135  -18.4982 H   0  0  0  0  0  0  0  0  0  0  0  0
    0.3605  -50.8417  -19.2194 N   0  0  0  0  0  0  0  0  0  0  0  0
    0.6583  -51.0773  -17.8603 C   0  0  0  0  0  0  0  0  0  0  0  0
   -0.3559  -51.5051  -16.8685 C   0  0  0  0  0  0  0  0  0  0  0  0
    1.8395  -50.9179  -17.4671 O   0  0  0  0  0  0  0  0  0  0  0  0
   -0.6161  -50.9715  -19.5543 H   0  0  0  0  0  0  0  0  0  0  0  0
    3.2346  -48.0372  -22.9438 C   0  0  0  0  0  0  0  0  0  0  0  0
    2.9556  -46.9062  -23.4321 O   0  0  0  0  0  0  0  0  0  0  0  0
    4.5513  -48.4927  -23.0498 O   0  0  0  0  0  0  0  0  0  0  0  0
    5.2797  -47.7810  -22.9396 H   0  0  0  0  0  0  0  0  0  0  0  0
    1.2098  -52.2219  -21.7804 O   0  0  0  0  0  0  0  0  0  0  0  0
    0.1066  -52.9189  -22.2838 C   0  0  0  0  0  0  0  0  0  0  0  0
   -1.1708  -52.7069  -21.5735 C   0  0  0  0  0  0  0  0  0  0  0  0
   -1.3870  -53.7798  -20.5045 C   0  0  0  0  0  0  0  0  0  0  0  0
   -0.0060  -52.8505  -23.7432 C   0  0  0  0  0  0  0  0  0  0  0  0
    1.1148  -52.9433  -24.6793 C   0  0  0  0  0  0  0  0  0  0  0  0
    0.8475  -53.5364  -25.9959 C   0  0  0  0  0  0  0  0  0  0  0  0
    0.4175  -52.4060  -26.9953 C   0  0  0  0  0  0  0  0  0  0  0  0
   -1.0807  -52.5835  -27.1385 C   0  0  0  0  0  0  0  0  0  0  0  0
   -0.3244  -52.8001  -29.4413 C   0  0  0  0  0  0  0  0  0  0  0  0
   -1.5196  -52.5566  -28.5722 C   0  0  0  0  0  0  0  0  0  0  0  0
 28 29  1  0  0  0
 29 27  1  0  0  0
 27 26  1  0  0  0
 26 25  1  0  0  0
 25 24  1  0  0  0
 24 23  1  0  0  0
 23 20  1  0  0  0
 20 21  1  0  0  0
 21 22  1  0  0  0
 20 19  1  0  0  0
 19  1  1  0  0  0
  1  2  1  0  0  0
  2  3  2  0  0  0
  3 15  1  0  0  0
 15 16  2  0  0  0
 15 17  1  0  0  0
  3  4  1  0  0  0
  4  5  1  0  0  0
  5  6  1  0  0  0
  5  7  1  0  0  0
  7 10  1  0  0  0
 10 11  1  0  0  0
 11 12  1  0  0  0
 11 13  2  0  0  0
  7  1  1  0  0  0
 17 18  1  0  0  0
  6  8  1  0  0  0
  6  9  1  0  0  0
 10 14  1  0  0  0
M  END
> <minimizedAffinity>
-5.96855

> <CNNscore>
0.2949453294

> <CNNaffinity>
5.6370220184

> <CNN_VS>
1.6626132727

> <CNNaffinity_variance>
0.0876981243

$$$$
[H]OC(=O)C1=C([H])[C@@]([H])(O[C@@]([H])(C([H])([H])C([H])([H])[H])C([H])([H])C([H])([H])C([H])([H])C([H])([H])C([H])([H])C([H])([H])C([H])([H])[H])[C@]([H])(N([H])C(=O)C([H])([H])[H])[C@@]([H])(N([H])[H])C1([H])[H]


 29 29  0  0  0  0  0  0  0  0999 V2000
    1.3568  -52.3124  -23.8500 C   0  0  0  0  0  0  0  0  0  0  0  0
    1.1298  -53.0385  -22.5381 C   0  0  0  0  0  0  0  0  0  0  0  0
   -0.1288  -53.3112  -22.1923 C   0  0  0  0  0  0  0  0  0  0  0  0
   -1.1400  -52.8476  -23.2161 C   0  0  0  0  0  0  0  0  0  0  0  0
   -0.7414  -53.5542  -24.4861 C   0  0  0  0  0  0  0  0  0  0  0  0
   -0.9422  -54.9921  -24.3348 N   0  0  0  0  0  0  0  0  0  0  0  0
    0.6825  -53.2301  -24.8455 C   0  0  0  0  0  0  0  0  0  0  0  0
   -1.5035  -55.2075  -23.4817 H   0  0  0  0  0  0  0  0  0  0  0  0
   -1.4760  -55.3506  -25.1830 H   0  0  0  0  0  0  0  0  0  0  0  0
    0.6401  -52.7153  -26.1948 N   0  0  0  0  0  0  0  0  0  0  0  0
    0.5797  -53.5487  -27.3319 C   0  0  0  0  0  0  0  0  0  0  0  0
    0.5361  -53.0293  -28.7188 C   0  0  0  0  0  0  0  0  0  0  0  0
    0.5618  -54.7927  -27.1656 O   0  0  0  0  0  0  0  0  0  0  0  0
    0.6555  -51.6828  -26.3233 H   0  0  0  0  0  0  0  0  0  0  0  0
   -0.5551  -53.9829  -21.0024 C   0  0  0  0  0  0  0  0  0  0  0  0
   -1.7355  -54.3947  -20.8218 O   0  0  0  0  0  0  0  0  0  0  0  0
    0.3789  -54.1966  -19.9853 O   0  0  0  0  0  0  0  0  0  0  0  0
    0.3021  -55.0898  -19.4897 H   0  0  0  0  0  0  0  0  0  0  0  0
    2.6904  -52.1748  -24.0294 O   0  0  0  0  0  0  0  0  0  0  0  0
    3.3800  -51.3004  -23.1831 C   0  0  0  0  0  0  0  0  0  0  0  0
    4.8299  -51.5448  -23.0439 C   0  0  0  0  0  0  0  0  0  0  0  0
    5.3588  -52.3790  -24.2123 C   0  0  0  0  0  0  0  0  0  0  0  0
    3.0318  -49.8929  -23.3951 C   0  0  0  0  0  0  0  0  0  0  0  0
    3.7502  -48.9714  -24.2759 C   0  0  0  0  0  0  0  0  0  0  0  0
    3.6448  -49.2000  -25.7227 C   0  0  0  0  0  0  0  0  0  0  0  0
    3.0738  -47.9104  -26.4102 C   0  0  0  0  0  0  0  0  0  0  0  0
    3.3823  -46.7964  -25.4302 C   0  0  0  0  0  0  0  0  0  0  0  0
    2.0209  -45.0320  -24.4529 C   0  0  0  0  0  0  0  0  0  0  0  0
    2.6083  -45.5476  -25.7306 C   0  0  0  0  0  0  0  0  0  0  0  0
 28 29  1  0  0  0
 29 27  1  0  0  0
 27 26  1  0  0  0
 26 25  1  0  0  0
 25 24  1  0  0  0
 24 23  1  0  0  0
 23 20  1  0  0  0
 20 21  1  0  0  0
 21 22  1  0  0  0
 20 19  1  0  0  0
 19  1  1  0  0  0
  1  2  1  0  0  0
  2  3  2  0  0  0
  3 15  1  0  0  0
 15 16  2  0  0  0
 15 17  1  0  0  0
  3  4  1  0  0  0
  4  5  1  0  0  0
  5  6  1  0  0  0
  5  7  1  0  0  0
  7 10  1  0  0  0
 10 11  1  0  0  0
 11 12  1  0  0  0
 11 13  2  0  0  0
  7  1  1  0  0  0
 17 18  1  0  0  0
  6  8  1  0  0  0
  6  9  1  0  0  0
 10 14  1  0  0  0
M  END
> <minimizedAffinity>
-6.00827

> <CNNscore>
0.2749446034

> <CNNaffinity>
5.9400844574

> <CNN_VS>
1.6331942081

> <CNNaffinity_variance>
0.2146256864

$$$$
[H]OC(=O)C1=C([H])[C@@]([H])(O[C@@]([H])(C([H])([H])C([H])([H])[H])C([H])([H])C([H])([H])C([H])([H])C([H])([H])C([H])([H])C([H])([H])C([H])([H])[H])[C@]([H])(N([H])C(=O)C([H])([H])[H])[C@@]([H])(N([H])[H])C1([H])[H]


 29 29  0  0  0  0  0  0  0  0999 V2000
    2.7251  -51.7868  -23.0750 C   0  0  0  0  0  0  0  0  0  0  0  0
    3.1240  -50.7224  -22.0711 C   0  0  0  0  0  0  0  0  0  0  0  0
    4.4264  -50.5277  -21.8613 C   0  0  0  0  0  0  0  0  0  0  0  0
    5.3046  -51.4223  -22.7063 C   0  0  0  0  0  0  0  0  0  0  0  0
    4.9112  -51.1043  -24.1259 C   0  0  0  0  0  0  0  0  0  0  0  0
    5.2935  -49.7330  -24.4485 N   0  0  0  0  0  0  0  0  0  0  0  0
    3.4380  -51.3292  -24.3281 C   0  0  0  0  0  0  0  0  0  0  0  0
    5.9316  -49.3380  -23.7233 H   0  0  0  0  0  0  0  0  0  0  0  0
    5.8094  -49.7353  -25.3795 H   0  0  0  0  0  0  0  0  0  0  0  0
    3.3289  -52.2433  -25.4417 N   0  0  0  0  0  0  0  0  0  0  0  0
    3.0215  -51.8214  -26.7527 C   0  0  0  0  0  0  0  0  0  0  0  0
    2.9076  -52.7518  -27.9001 C   0  0  0  0  0  0  0  0  0  0  0  0
    2.8344  -50.5981  -26.9625 O   0  0  0  0  0  0  0  0  0  0  0  0
    3.4855  -53.2556  -25.2585 H   0  0  0  0  0  0  0  0  0  0  0  0
    5.0081  -49.5798  -20.9602 C   0  0  0  0  0  0  0  0  0  0  0  0
    6.1579  -49.7160  -20.4555 O   0  0  0  0  0  0  0  0  0  0  0  0
    4.2700  -48.4437  -20.6184 O   0  0  0  0  0  0  0  0  0  0  0  0
    4.8061  -47.5764  -20.5202 H   0  0  0  0  0  0  0  0  0  0  0  0
    1.3757  -51.7920  -23.1687 O   0  0  0  0  0  0  0  0  0  0  0  0
    0.6908  -52.9268  -22.7220 C   0  0  0  0  0  0  0  0  0  0  0  0
    0.5247  -53.0473  -21.2594 C   0  0  0  0  0  0  0  0  0  0  0  0
   -0.4383  -54.1836  -20.9100 C   0  0  0  0  0  0  0  0  0  0  0  0
   -0.5294  -53.2052  -23.4841 C   0  0  0  0  0  0  0  0  0  0  0  0
   -0.6194  -53.2457  -24.9440 C   0  0  0  0  0  0  0  0  0  0  0  0
    0.1359  -54.2965  -25.6382 C   0  0  0  0  0  0  0  0  0  0  0  0
   -0.0943  -54.1640  -27.1845 C   0  0  0  0  0  0  0  0  0  0  0  0
   -1.0135  -52.9673  -27.3244 C   0  0  0  0  0  0  0  0  0  0  0  0
   -0.4120  -53.2423  -29.6663 C   0  0  0  0  0  0  0  0  0  0  0  0
   -0.8081  -52.2443  -28.6221 C   0  0  0  0  0  0  0  0  0  0  0  0
 28 29  1  0  0  0
 29 27  1  0  0  0
 27 26  1  0  0  0
 26 25  1  0  0  0
 25 24  1  0  0  0
 24 23  1  0  0  0
 23 20  1  0  0  0
 20 21  1  0  0  0
 21 22  1  0  0  0
 20 19  1  0  0  0
 19  1  1  0  0  0
  1  2  1  0  0  0
  2  3  2  0  0  0
  3 15  1  0  0  0
 15 16  2  0  0  0
 15 17  1  0  0  0
  3  4  1  0  0  0
  4  5  1  0  0  0
  5  6  1  0  0  0
  5  7  1  0  0  0
  7 10  1  0  0  0
 10 11  1  0  0  0
 11 12  1  0  0  0
 11 13  2  0  0  0
  7  1  1  0  0  0
 17 18  1  0  0  0
  6  8  1  0  0  0
  6  9  1  0  0  0
 10 14  1  0  0  0
M  END
> <minimizedAffinity>
-5.59796

> <CNNscore>
0.2631288171

> <CNNaffinity>
5.7362871170

> <CNN_VS>
1.5093824863

> <CNNaffinity_variance>
0.1736600548

$$$$
[H]OC(=O)C1=C([H])[C@@]([H])(O[C@@]([H])(C([H])([H])C([H])([H])[H])C([H])([H])C([H])([H])C([H])([H])C([H])([H])C([H])([H])C([H])([H])C([H])([H])[H])[C@]([H])(N([H])C(=O)C([H])([H])[H])[C@@]([H])(N([H])[H])C1([H])[H]


 29 29  0  0  0  0  0  0  0  0999 V2000
    1.1940  -51.7928  -22.3296 C   0  0  0  0  0  0  0  0  0  0  0  0
   -0.1171  -52.5490  -22.4251 C   0  0  0  0  0  0  0  0  0  0  0  0
   -0.3282  -53.5330  -21.5504 C   0  0  0  0  0  0  0  0  0  0  0  0
    0.8105  -53.7131  -20.5724 C   0  0  0  0  0  0  0  0  0  0  0  0
    0.9375  -52.3747  -19.8914 C   0  0  0  0  0  0  0  0  0  0  0  0
   -0.2537  -52.1143  -19.0889 N   0  0  0  0  0  0  0  0  0  0  0  0
    1.1698  -51.2874  -20.9041 C   0  0  0  0  0  0  0  0  0  0  0  0
   -0.8351  -52.9749  -18.9853 H   0  0  0  0  0  0  0  0  0  0  0  0
    0.0531  -51.8018  -18.1188 H   0  0  0  0  0  0  0  0  0  0  0  0
    2.3809  -50.6169  -20.4903 N   0  0  0  0  0  0  0  0  0  0  0  0
    2.3889  -49.5478  -19.5693 C   0  0  0  0  0  0  0  0  0  0  0  0
    3.6259  -48.8546  -19.1397 C   0  0  0  0  0  0  0  0  0  0  0  0
    1.2965  -49.1611  -19.0871 O   0  0  0  0  0  0  0  0  0  0  0  0
    3.2819  -50.9439  -20.8953 H   0  0  0  0  0  0  0  0  0  0  0  0
   -1.4912  -54.3638  -21.4725 C   0  0  0  0  0  0  0  0  0  0  0  0
   -2.2964  -54.3426  -20.4996 O   0  0  0  0  0  0  0  0  0  0  0  0
   -1.7536  -55.2452  -22.5245 O   0  0  0  0  0  0  0  0  0  0  0  0
   -2.7402  -55.3591  -22.7755 H   0  0  0  0  0  0  0  0  0  0  0  0
    1.1876  -50.8194  -23.2689 O   0  0  0  0  0  0  0  0  0  0  0  0
    2.1919  -50.8396  -24.2421 C   0  0  0  0  0  0  0  0  0  0  0  0
    3.3953  -50.0362  -23.9457 C   0  0  0  0  0  0  0  0  0  0  0  0
    3.3743  -48.7146  -24.7159 C   0  0  0  0  0  0  0  0  0  0  0  0
    2.4838  -52.1840  -24.7466 C   0  0  0  0  0  0  0  0  0  0  0  0
    1.8763  -52.7884  -25.9326 C   0  0  0  0  0  0  0  0  0  0  0  0
    0.8369  -53.8030  -25.7162 C   0  0  0  0  0  0  0  0  0  0  0  0
   -0.1722  -53.7749  -26.9173 C   0  0  0  0  0  0  0  0  0  0  0  0
    0.6820  -53.4099  -28.1147 C   0  0  0  0  0  0  0  0  0  0  0  0
   -1.5402  -52.6554  -28.7587 C   0  0  0  0  0  0  0  0  0  0  0  0
   -0.1299  -52.8274  -29.2329 C   0  0  0  0  0  0  0  0  0  0  0  0
 28 29  1  0  0  0
 29 27  1  0  0  0
 27 26  1  0  0  0
 26 25  1  0  0  0
 25 24  1  0  0  0
 24 23  1  0  0  0
 23 20  1  0  0  0
 20 21  1  0  0  0
 21 22  1  0  0  0
 20 19  1  0  0  0
 19  1  1  0  0  0
  1  2  1  0  0  0
  2  3  2  0  0  0
  3 15  1  0  0  0
 15 16  2  0  0  0
 15 17  1  0  0  0
  3  4  1  0  0  0
  4  5  1  0  0  0
  5  6  1  0  0  0
  5  7  1  0  0  0
  7 10  1  0  0  0
 10 11  1  0  0  0
 11 12  1  0  0  0
 11 13  2  0  0  0
  7  1  1  0  0  0
 17 18  1  0  0  0
  6  8  1  0  0  0
  6  9  1  0  0  0
 10 14  1  0  0  0
M  END
> <minimizedAffinity>
-5.98990

> <CNNscore>
0.2540009618

> <CNNaffinity>
5.6372346878

> <CNN_VS>
1.4318630695

> <CNNaffinity_variance>
0.2786921859

$$$$
[H]OC(=O)C1=C([H])[C@@]([H])(O[C@@]([H])(C([H])([H])C([H])([H])[H])C([H])([H])C([H])([H])C([H])([H])C([H])([H])C([H])([H])C([H])([H])C([H])([H])[H])[C@]([H])(N([H])C(=O)C([H])([H])[H])[C@@]([H])(N([H])[H])C1([H])[H]


 29 29  0  0  0  0  0  0  0  0999 V2000
    1.5869  -51.6292  -23.3674 C   0  0  0  0  0  0  0  0  0  0  0  0
    1.8836  -51.1341  -21.9650 C   0  0  0  0  0  0  0  0  0  0  0  0
    3.1539  -51.1490  -21.5601 C   0  0  0  0  0  0  0  0  0  0  0  0
    4.1083  -51.6576  -22.6165 C   0  0  0  0  0  0  0  0  0  0  0  0
    3.9033  -50.7308  -23.7870 C   0  0  0  0  0  0  0  0  0  0  0  0
    4.3568  -49.3878  -23.4385 N   0  0  0  0  0  0  0  0  0  0  0  0
    2.4618  -50.7331  -24.2157 C   0  0  0  0  0  0  0  0  0  0  0  0
    4.9089  -49.3934  -22.5528 H   0  0  0  0  0  0  0  0  0  0  0  0
    4.9848  -49.0290  -24.2194 H   0  0  0  0  0  0  0  0  0  0  0  0
    2.4701  -51.0681  -25.6212 N   0  0  0  0  0  0  0  0  0  0  0  0
    2.6429  -52.3863  -26.0942 C   0  0  0  0  0  0  0  0  0  0  0  0
    2.6528  -52.7386  -27.5333 C   0  0  0  0  0  0  0  0  0  0  0  0
    2.7963  -53.3099  -25.2583 O   0  0  0  0  0  0  0  0  0  0  0  0
    2.3424  -50.2961  -26.3071 H   0  0  0  0  0  0  0  0  0  0  0  0
    3.6418  -50.7285  -20.2818 C   0  0  0  0  0  0  0  0  0  0  0  0
    4.2129  -49.6189  -20.0867 O   0  0  0  0  0  0  0  0  0  0  0  0
    3.4804  -51.5861  -19.1905 O   0  0  0  0  0  0  0  0  0  0  0  0
    3.2587  -51.1352  -18.2979 H   0  0  0  0  0  0  0  0  0  0  0  0
    0.2600  -51.4901  -23.5907 O   0  0  0  0  0  0  0  0  0  0  0  0
   -0.4825  -52.6413  -23.8730 C   0  0  0  0  0  0  0  0  0  0  0  0
   -0.7802  -52.8848  -25.2991 C   0  0  0  0  0  0  0  0  0  0  0  0
   -0.9829  -51.5665  -26.0485 C   0  0  0  0  0  0  0  0  0  0  0  0
   -0.0103  -53.8270  -23.1532 C   0  0  0  0  0  0  0  0  0  0  0  0
   -0.6257  -54.3796  -21.9461 C   0  0  0  0  0  0  0  0  0  0  0  0
    0.0056  -54.0596  -20.6593 C   0  0  0  0  0  0  0  0  0  0  0  0
   -0.8964  -53.0397  -19.8797 C   0  0  0  0  0  0  0  0  0  0  0  0
    0.0844  -52.2176  -19.0680 C   0  0  0  0  0  0  0  0  0  0  0  0
   -1.5058  -52.8551  -17.3397 C   0  0  0  0  0  0  0  0  0  0  0  0
   -0.4637  -51.8493  -17.7216 C   0  0  0  0  0  0  0  0  0  0  0  0
 28 29  1  0  0  0
 29 27  1  0  0  0
 27 26  1  0  0  0
 26 25  1  0  0  0
 25 24  1  0  0  0
 24 23  1  0  0  0
 23 20  1  0  0  0
 20 21  1  0  0  0
 21 22  1  0  0  0
 20 19  1  0  0  0
 19  1  1  0  0  0
  1  2  1  0  0  0
  2  3  2  0  0  0
  3 15  1  0  0  0
 15 16  2  0  0  0
 15 17  1  0  0  0
  3  4  1  0  0  0
  4  5  1  0  0  0
  5  6  1  0  0  0
  5  7  1  0  0  0
  7 10  1  0  0  0
 10 11  1  0  0  0
 11 12  1  0  0  0
 11 13  2  0  0  0
  7  1  1  0  0  0
 17 18  1  0  0  0
  6  8  1  0  0  0
  6  9  1  0  0  0
 10 14  1  0  0  0
M  END
> <minimizedAffinity>
-5.90169

> <CNNscore>
0.2433179766

> <CNNaffinity>
5.5914506912

> <CNN_VS>
1.3605004549

> <CNNaffinity_variance>
0.0694655925

$$$$
[H]OC(=O)C1=C([H])[C@@]([H])(O[C@@]([H])(C([H])([H])C([H])([H])[H])C([H])([H])C([H])([H])C([H])([H])C([H])([H])C([H])([H])C([H])([H])C([H])([H])[H])[C@]([H])(N([H])C(=O)C([H])([H])[H])[C@@]([H])(N([H])[H])C1([H])[H]


 29 29  0  0  0  0  0  0  0  0999 V2000
    2.6655  -51.7843  -23.8593 C   0  0  0  0  0  0  0  0  0  0  0  0
    3.4337  -50.9366  -22.8637 C   0  0  0  0  0  0  0  0  0  0  0  0
    4.5695  -51.4351  -22.3743 C   0  0  0  0  0  0  0  0  0  0  0  0
    4.9104  -52.7975  -22.9339 C   0  0  0  0  0  0  0  0  0  0  0  0
    4.9872  -52.5843  -24.4238 C   0  0  0  0  0  0  0  0  0  0  0  0
    6.1181  -51.7173  -24.7406 N   0  0  0  0  0  0  0  0  0  0  0  0
    3.6945  -52.0179  -24.9431 C   0  0  0  0  0  0  0  0  0  0  0  0
    6.7473  -51.6007  -23.9162 H   0  0  0  0  0  0  0  0  0  0  0  0
    6.6791  -52.1659  -25.5261 H   0  0  0  0  0  0  0  0  0  0  0  0
    3.2632  -52.9170  -25.9887 N   0  0  0  0  0  0  0  0  0  0  0  0
    2.8555  -52.4706  -27.2638 C   0  0  0  0  0  0  0  0  0  0  0  0
    2.4117  -53.3853  -28.3415 C   0  0  0  0  0  0  0  0  0  0  0  0
    2.8678  -51.2383  -27.5019 O   0  0  0  0  0  0  0  0  0  0  0  0
    3.2561  -53.9369  -25.7825 H   0  0  0  0  0  0  0  0  0  0  0  0
    5.4366  -50.8001  -21.4288 C   0  0  0  0  0  0  0  0  0  0  0  0
    5.0192  -50.1766  -20.4128 O   0  0  0  0  0  0  0  0  0  0  0  0
    6.8166  -50.8711  -21.6361 O   0  0  0  0  0  0  0  0  0  0  0  0
    7.3891  -50.9817  -20.7939 H   0  0  0  0  0  0  0  0  0  0  0  0
    1.5801  -51.0832  -24.2596 O   0  0  0  0  0  0  0  0  0  0  0  0
    0.3382  -51.7261  -24.2369 C   0  0  0  0  0  0  0  0  0  0  0  0
   -0.3530  -51.8428  -25.5369 C   0  0  0  0  0  0  0  0  0  0  0  0
   -0.4853  -53.3081  -25.9566 C   0  0  0  0  0  0  0  0  0  0  0  0
    0.3396  -52.9629  -23.4509 C   0  0  0  0  0  0  0  0  0  0  0  0
   -0.5187  -53.2272  -22.2957 C   0  0  0  0  0  0  0  0  0  0  0  0
    0.0442  -54.0369  -21.2075 C   0  0  0  0  0  0  0  0  0  0  0  0
    0.1599  -53.1567  -19.9139 C   0  0  0  0  0  0  0  0  0  0  0  0
    1.5519  -52.5624  -19.9893 C   0  0  0  0  0  0  0  0  0  0  0  0
    0.4110  -50.8397  -18.7038 C   0  0  0  0  0  0  0  0  0  0  0  0
    1.5688  -51.1105  -19.6146 C   0  0  0  0  0  0  0  0  0  0  0  0
 28 29  1  0  0  0
 29 27  1  0  0  0
 27 26  1  0  0  0
 26 25  1  0  0  0
 25 24  1  0  0  0
 24 23  1  0  0  0
 23 20  1  0  0  0
 20 21  1  0  0  0
 21 22  1  0  0  0
 20 19  1  0  0  0
 19  1  1  0  0  0
  1  2  1  0  0  0
  2  3  2  0  0  0
  3 15  1  0  0  0
 15 16  2  0  0  0
 15 17  1  0  0  0
  3  4  1  0  0  0
  4  5  1  0  0  0
  5  6  1  0  0  0
  5  7  1  0  0  0
  7 10  1  0  0  0
 10 11  1  0  0  0
 11 12  1  0  0  0
 11 13  2  0  0  0
  7  1  1  0  0  0
 17 18  1  0  0  0
  6  8  1  0  0  0
  6  9  1  0  0  0
 10 14  1  0  0  0
M  END
> <minimizedAffinity>
-6.07832

> <CNNscore>
0.2427315116

> <CNNaffinity>
5.7305412292

> <CNN_VS>
1.3909829855

> <CNNaffinity_variance>
0.1878475547

$$$$
[H]OC(=O)C1=C([H])[C@@]([H])(O[C@@]([H])(C([H])([H])C([H])([H])[H])C([H])([H])C([H])([H])C([H])([H])C([H])([H])C([H])([H])C([H])([H])C([H])([H])[H])[C@]([H])(N([H])C(=O)C([H])([H])[H])[C@@]([H])(N([H])[H])C1([H])[H]


 29 29  0  0  0  0  0  0  0  0999 V2000
    1.7664  -52.4031  -23.3797 C   0  0  0  0  0  0  0  0  0  0  0  0
    2.7190  -51.5751  -22.5389 C   0  0  0  0  0  0  0  0  0  0  0  0
    4.0235  -51.6878  -22.7909 C   0  0  0  0  0  0  0  0  0  0  0  0
    4.3296  -52.6412  -23.9235 C   0  0  0  0  0  0  0  0  0  0  0  0
    3.5768  -52.0801  -25.1022 C   0  0  0  0  0  0  0  0  0  0  0  0
    4.1485  -50.7927  -25.4854 N   0  0  0  0  0  0  0  0  0  0  0  0
    2.1117  -51.9612  -24.7846 C   0  0  0  0  0  0  0  0  0  0  0  0
    5.0660  -50.6316  -25.0148 H   0  0  0  0  0  0  0  0  0  0  0  0
    4.3102  -50.7936  -26.5375 H   0  0  0  0  0  0  0  0  0  0  0  0
    1.4234  -52.6919  -25.8237 N   0  0  0  0  0  0  0  0  0  0  0  0
    0.2399  -52.2251  -26.4341 C   0  0  0  0  0  0  0  0  0  0  0  0
   -0.4723  -52.9678  -27.5000 C   0  0  0  0  0  0  0  0  0  0  0  0
   -0.2373  -51.1265  -26.0589 O   0  0  0  0  0  0  0  0  0  0  0  0
    1.8261  -53.6018  -26.1284 H   0  0  0  0  0  0  0  0  0  0  0  0
    5.0807  -50.9994  -22.1148 C   0  0  0  0  0  0  0  0  0  0  0  0
    5.1084  -50.8257  -20.8640 O   0  0  0  0  0  0  0  0  0  0  0  0
    6.1389  -50.4916  -22.8730 O   0  0  0  0  0  0  0  0  0  0  0  0
    7.0673  -50.5612  -22.4459 H   0  0  0  0  0  0  0  0  0  0  0  0
    0.5030  -52.1104  -22.9953 O   0  0  0  0  0  0  0  0  0  0  0  0
   -0.3277  -53.1677  -22.6101 C   0  0  0  0  0  0  0  0  0  0  0  0
   -0.8556  -54.0067  -23.7050 C   0  0  0  0  0  0  0  0  0  0  0  0
   -1.3395  -55.3576  -23.1744 C   0  0  0  0  0  0  0  0  0  0  0  0
    0.1950  -53.9318  -21.4743 C   0  0  0  0  0  0  0  0  0  0  0  0
    0.5753  -53.3633  -20.1807 C   0  0  0  0  0  0  0  0  0  0  0  0
   -0.5069  -52.9024  -19.3015 C   0  0  0  0  0  0  0  0  0  0  0  0
   -0.0062  -51.6729  -18.4651 C   0  0  0  0  0  0  0  0  0  0  0  0
    1.3960  -51.4168  -18.9796 C   0  0  0  0  0  0  0  0  0  0  0  0
    1.2436  -49.2766  -17.8316 C   0  0  0  0  0  0  0  0  0  0  0  0
    1.7009  -49.9525  -19.0875 C   0  0  0  0  0  0  0  0  0  0  0  0
 28 29  1  0  0  0
 29 27  1  0  0  0
 27 26  1  0  0  0
 26 25  1  0  0  0
 25 24  1  0  0  0
 24 23  1  0  0  0
 23 20  1  0  0  0
 20 21  1  0  0  0
 21 22  1  0  0  0
 20 19  1  0  0  0
 19  1  1  0  0  0
  1  2  1  0  0  0
  2  3  2  0  0  0
  3 15  1  0  0  0
 15 16  2  0  0  0
 15 17  1  0  0  0
  3  4  1  0  0  0
  4  5  1  0  0  0
  5  6  1  0  0  0
  5  7  1  0  0  0
  7 10  1  0  0  0
 10 11  1  0  0  0
 11 12  1  0  0  0
 11 13  2  0  0  0
  7  1  1  0  0  0
 17 18  1  0  0  0
  6  8  1  0  0  0
  6  9  1  0  0  0
 10 14  1  0  0  0
M  END
> <minimizedAffinity>
-5.67589

> <CNNscore>
0.2232228518

> <CNNaffinity>
5.5975217819

> <CNN_VS>
1.2494947910

> <CNNaffinity_variance>
0.2007583380

$$$$
[H]OC(=O)C1=C([H])[C@@]([H])(O[C@@]([H])(C([H])([H])C([H])([H])[H])C([H])([H])C([H])([H])C([H])([H])C([H])([H])C([H])([H])C([H])([H])C([H])([H])[H])[C@]([H])(N([H])C(=O)C([H])([H])[H])[C@@]([H])(N([H])[H])C1([H])[H]


 29 29  0  0  0  0  0  0  0  0999 V2000
    1.4309  -52.0700  -24.4064 C   0  0  0  0  0  0  0  0  0  0  0  0
    1.4175  -52.7586  -23.0552 C   0  0  0  0  0  0  0  0  0  0  0  0
    0.2308  -53.0553  -22.5246 C   0  0  0  0  0  0  0  0  0  0  0  0
   -0.9309  -52.6547  -23.4052 C   0  0  0  0  0  0  0  0  0  0  0  0
   -0.6947  -53.3912  -24.6986 C   0  0  0  0  0  0  0  0  0  0  0  0
   -0.8245  -54.8284  -24.4789 N   0  0  0  0  0  0  0  0  0  0  0  0
    0.6519  -53.0389  -25.2680 C   0  0  0  0  0  0  0  0  0  0  0  0
   -1.2508  -55.0314  -23.5482 H   0  0  0  0  0  0  0  0  0  0  0  0
   -1.4618  -55.2298  -25.2311 H   0  0  0  0  0  0  0  0  0  0  0  0
    0.4004  -52.5702  -26.6114 N   0  0  0  0  0  0  0  0  0  0  0  0
    0.3439  -53.4332  -27.7265 C   0  0  0  0  0  0  0  0  0  0  0  0
    0.0868  -52.9613  -29.1072 C   0  0  0  0  0  0  0  0  0  0  0  0
    0.5195  -54.6627  -27.5449 O   0  0  0  0  0  0  0  0  0  0  0  0
    0.2562  -51.5494  -26.7526 H   0  0  0  0  0  0  0  0  0  0  0  0
    0.0010  -53.6992  -21.2670 C   0  0  0  0  0  0  0  0  0  0  0  0
   -0.8340  -54.6333  -21.1069 O   0  0  0  0  0  0  0  0  0  0  0  0
    0.7358  -53.2763  -20.1563 O   0  0  0  0  0  0  0  0  0  0  0  0
    1.0287  -54.0135  -19.5082 H   0  0  0  0  0  0  0  0  0  0  0  0
    2.7201  -51.9006  -24.7794 O   0  0  0  0  0  0  0  0  0  0  0  0
    3.1326  -50.6171  -25.1519 C   0  0  0  0  0  0  0  0  0  0  0  0
    3.2405  -50.3689  -26.6039 C   0  0  0  0  0  0  0  0  0  0  0  0
    3.6525  -48.9222  -26.8825 C   0  0  0  0  0  0  0  0  0  0  0  0
    2.4477  -49.5513  -24.4157 C   0  0  0  0  0  0  0  0  0  0  0  0
    3.0036  -48.8260  -23.2729 C   0  0  0  0  0  0  0  0  0  0  0  0
    2.6249  -49.2876  -21.9312 C   0  0  0  0  0  0  0  0  0  0  0  0
    3.9195  -49.6632  -21.1284 C   0  0  0  0  0  0  0  0  0  0  0  0
    3.8861  -51.1763  -21.0518 C   0  0  0  0  0  0  0  0  0  0  0  0
    5.9648  -50.7986  -22.2594 C   0  0  0  0  0  0  0  0  0  0  0  0
    4.9057  -51.8114  -21.9495 C   0  0  0  0  0  0  0  0  0  0  0  0
 28 29  1  0  0  0
 29 27  1  0  0  0
 27 26  1  0  0  0
 26 25  1  0  0  0
 25 24  1  0  0  0
 24 23  1  0  0  0
 23 20  1  0  0  0
 20 21  1  0  0  0
 21 22  1  0  0  0
 20 19  1  0  0  0
 19  1  1  0  0  0
  1  2  1  0  0  0
  2  3  2  0  0  0
  3 15  1  0  0  0
 15 16  2  0  0  0
 15 17  1  0  0  0
  3  4  1  0  0  0
  4  5  1  0  0  0
  5  6  1  0  0  0
  5  7  1  0  0  0
  7 10  1  0  0  0
 10 11  1  0  0  0
 11 12  1  0  0  0
 11 13  2  0  0  0
  7  1  1  0  0  0
 17 18  1  0  0  0
  6  8  1  0  0  0
  6  9  1  0  0  0
 10 14  1  0  0  0
M  END
> <minimizedAffinity>
-5.50849

> <CNNscore>
0.2041252404

> <CNNaffinity>
5.7353291512

> <CNN_VS>
1.1707254648

> <CNNaffinity_variance>
0.1349599361

$$$$
[H]OC(=O)C1=C([H])[C@@]([H])(O[C@@]([H])(C([H])([H])C([H])([H])[H])C([H])([H])C([H])([H])C([H])([H])C([H])([H])C([H])([H])C([H])([H])C([H])([H])[H])[C@]([H])(N([H])C(=O)C([H])([H])[H])[C@@]([H])(N([H])[H])C1([H])[H]


 29 29  0  0  0  0  0  0  0  0999 V2000
    1.4643  -52.0491  -23.8361 C   0  0  0  0  0  0  0  0  0  0  0  0
    1.6142  -51.5828  -25.2714 C   0  0  0  0  0  0  0  0  0  0  0  0
    1.6559  -52.5158  -26.2232 C   0  0  0  0  0  0  0  0  0  0  0  0
    1.5225  -53.9216  -25.6834 C   0  0  0  0  0  0  0  0  0  0  0  0
    0.2034  -53.9219  -24.9549 C   0  0  0  0  0  0  0  0  0  0  0  0
   -0.8873  -53.7448  -25.9087 N   0  0  0  0  0  0  0  0  0  0  0  0
    0.1868  -52.8571  -23.8930 C   0  0  0  0  0  0  0  0  0  0  0  0
   -0.5539  -53.8647  -26.8904 H   0  0  0  0  0  0  0  0  0  0  0  0
   -1.6285  -54.4842  -25.7168 H   0  0  0  0  0  0  0  0  0  0  0  0
   -0.1429  -53.5356  -22.6607 N   0  0  0  0  0  0  0  0  0  0  0  0
   -0.9756  -52.9687  -21.6725 C   0  0  0  0  0  0  0  0  0  0  0  0
   -1.3187  -53.6572  -20.4062 C   0  0  0  0  0  0  0  0  0  0  0  0
   -1.4518  -51.8246  -21.8713 O   0  0  0  0  0  0  0  0  0  0  0  0
    0.2565  -54.4836  -22.5043 H   0  0  0  0  0  0  0  0  0  0  0  0
    1.7937  -52.2874  -27.6295 C   0  0  0  0  0  0  0  0  0  0  0  0
    0.8387  -52.3988  -28.4485 O   0  0  0  0  0  0  0  0  0  0  0  0
    3.0474  -51.9220  -28.1267 O   0  0  0  0  0  0  0  0  0  0  0  0
    3.0432  -51.2327  -28.8845 H   0  0  0  0  0  0  0  0  0  0  0  0
    1.4001  -50.9552  -23.0430 O   0  0  0  0  0  0  0  0  0  0  0  0
    2.5985  -50.3186  -22.7042 C   0  0  0  0  0  0  0  0  0  0  0  0
    2.6410  -48.8594  -22.9283 C   0  0  0  0  0  0  0  0  0  0  0  0
    3.4635  -48.5208  -24.1731 C   0  0  0  0  0  0  0  0  0  0  0  0
    3.1297  -50.7363  -21.4039 C   0  0  0  0  0  0  0  0  0  0  0  0
    3.9440  -49.9019  -20.5198 C   0  0  0  0  0  0  0  0  0  0  0  0
    5.4017  -49.9638  -20.6866 C   0  0  0  0  0  0  0  0  0  0  0  0
    5.7573  -51.0904  -21.7191 C   0  0  0  0  0  0  0  0  0  0  0  0
    6.4540  -50.3570  -22.8475 C   0  0  0  0  0  0  0  0  0  0  0  0
    5.4274  -52.2608  -23.9627 C   0  0  0  0  0  0  0  0  0  0  0  0
    6.3283  -51.0798  -24.1554 C   0  0  0  0  0  0  0  0  0  0  0  0
 28 29  1  0  0  0
 29 27  1  0  0  0
 27 26  1  0  0  0
 26 25  1  0  0  0
 25 24  1  0  0  0
 24 23  1  0  0  0
 23 20  1  0  0  0
 20 21  1  0  0  0
 21 22  1  0  0  0
 20 19  1  0  0  0
 19  1  1  0  0  0
  1  2  1  0  0  0
  2  3  2  0  0  0
  3 15  1  0  0  0
 15 16  2  0  0  0
 15 17  1  0  0  0
  3  4  1  0  0  0
  4  5  1  0  0  0
  5  6  1  0  0  0
  5  7  1  0  0  0
  7 10  1  0  0  0
 10 11  1  0  0  0
 11 12  1  0  0  0
 11 13  2  0  0  0
  7  1  1  0  0  0
 17 18  1  0  0  0
  6  8  1  0  0  0
  6  9  1  0  0  0
 10 14  1  0  0  0
M  END
> <minimizedAffinity>
-5.29552

> <CNNscore>
0.1761539727

> <CNNaffinity>
5.7589983940

> <CNN_VS>
1.0144704580

> <CNNaffinity_variance>
0.1450759619

$$$$
[H]c1c([H])c(-c2c([H])c([H])c(C([H])(C(=O)N([H])C([H])([H])C([H])([H])C([H])([H])C([H])([H])C([H])([H])C([H])([H])N([H])c3c4c(nc5c([H])c([H])c([H])c([H])c35)C([H])([H])C([H])([H])C([H])([H])C4([H])[H])C([H])([H])[H])c([H])c2F)c([H])c([H])c1OC([H])([H])C([H])([H])C([H])([H])C([H])([H])C([H])([H])C([H])([H])O[N+](=O)[O-]


 52 56  0  0  0  0  0  0  0  0999 V2000
   -1.1993  -54.9832  -23.5327 C   0  0  0  0  0  0  0  0  0  0  0  0
   -0.1385  -53.8917  -23.6368 C   0  0  0  0  0  0  0  0  0  0  0  0
   -0.0463  -53.2453  -22.3134 C   0  0  0  0  0  0  0  0  0  0  0  0
    0.1619  -54.0220  -21.1980 C   0  0  0  0  0  0  0  0  0  0  0  0
    0.2393  -53.4626  -19.9216 C   0  0  0  0  0  0  0  0  0  0  0  0
    0.1057  -52.1172  -19.7786 C   0  0  0  0  0  0  0  0  0  0  0  0
   -0.1029  -51.3230  -20.8795 C   0  0  0  0  0  0  0  0  0  0  0  0
   -0.2443  -49.9820  -20.7539 F   0  0  0  0  0  0  0  0  0  0  0  0
   -0.1794  -51.8929  -22.1577 C   0  0  0  0  0  0  0  0  0  0  0  0
    0.1875  -51.5074  -18.4643 C   0  0  0  0  0  0  0  0  0  0  0  0
    1.0808  -50.4983  -18.1824 C   0  0  0  0  0  0  0  0  0  0  0  0
    1.1344  -49.9236  -16.9085 C   0  0  0  0  0  0  0  0  0  0  0  0
    0.3158  -50.3234  -15.8801 C   0  0  0  0  0  0  0  0  0  0  0  0
   -0.5935  -51.3568  -16.1851 C   0  0  0  0  0  0  0  0  0  0  0  0
   -0.6336  -51.9075  -17.4346 C   0  0  0  0  0  0  0  0  0  0  0  0
    0.3081  -49.8174  -14.6052 O   0  0  0  0  0  0  0  0  0  0  0  0
    0.5512  -50.5093  -13.4219 C   0  0  0  0  0  0  0  0  0  0  0  0
    2.0212  -50.6831  -13.2112 C   0  0  0  0  0  0  0  0  0  0  0  0
    2.4059  -52.1274  -13.3413 C   0  0  0  0  0  0  0  0  0  0  0  0
    2.8846  -52.6643  -12.0365 C   0  0  0  0  0  0  0  0  0  0  0  0
    1.7698  -53.1512  -11.1465 C   0  0  0  0  0  0  0  0  0  0  0  0
    1.5942  -54.6318  -11.3208 C   0  0  0  0  0  0  0  0  0  0  0  0
    0.2436  -54.9686  -10.9575 O   0  0  0  0  0  0  0  0  0  0  0  0
    0.0330  -55.2784   -9.6356 N   0  0  0  0  0  0  0  0  0  0  0  0
    0.7988  -56.0210   -8.9934 O   0  0  0  0  0  0  0  0  0  0  0  0
   -1.0864  -54.7157   -9.0514 O   0  0  0  0  0  0  0  0  0  0  0  0
   -0.3620  -52.9914  -24.7660 C   0  0  0  0  0  0  0  0  0  0  0  0
    0.1617  -51.8217  -24.7705 O   0  0  0  0  0  0  0  0  0  0  0  0
   -1.1365  -53.3073  -25.9056 N   0  0  0  0  0  0  0  0  0  0  0  0
   -1.5813  -54.2471  -25.9472 H   0  0  0  0  0  0  0  0  0  0  0  0
   -1.3434  -52.4117  -27.0110 C   0  0  0  0  0  0  0  0  0  0  0  0
   -0.4207  -52.7025  -28.1700 C   0  0  0  0  0  0  0  0  0  0  0  0
    0.3579  -53.9748  -27.9003 C   0  0  0  0  0  0  0  0  0  0  0  0
    1.7819  -53.7350  -28.4055 C   0  0  0  0  0  0  0  0  0  0  0  0
    2.3856  -52.5421  -27.7687 C   0  0  0  0  0  0  0  0  0  0  0  0
    2.9948  -52.7556  -26.4485 C   0  0  0  0  0  0  0  0  0  0  0  0
    3.8351  -51.7674  -25.9197 N   0  0  0  0  0  0  0  0  0  0  0  0
    4.8987  -51.9163  -26.0980 H   0  0  0  0  0  0  0  0  0  0  0  0
    3.5798  -50.6034  -25.1923 C   0  0  0  0  0  0  0  0  0  0  0  0
    3.3669  -50.6826  -23.8304 C   0  0  0  0  0  0  0  0  0  0  0  0
    3.1628  -49.5303  -23.1079 C   0  0  0  0  0  0  0  0  0  0  0  0
    3.1754  -48.3275  -23.7504 N   0  0  0  0  0  0  0  0  0  0  0  0
    3.3794  -48.2073  -25.0706 C   0  0  0  0  0  0  0  0  0  0  0  0
    3.3912  -46.9828  -25.6943 C   0  0  0  0  0  0  0  0  0  0  0  0
    3.6042  -46.8756  -27.0395 C   0  0  0  0  0  0  0  0  0  0  0  0
    3.8086  -48.0320  -27.7631 C   0  0  0  0  0  0  0  0  0  0  0  0
    3.8014  -49.2595  -27.1667 C   0  0  0  0  0  0  0  0  0  0  0  0
    3.5844  -49.3584  -25.8018 C   0  0  0  0  0  0  0  0  0  0  0  0
    2.9242  -49.6125  -21.6631 C   0  0  0  0  0  0  0  0  0  0  0  0
    3.5571  -50.7662  -20.9662 C   0  0  0  0  0  0  0  0  0  0  0  0
    4.2424  -51.7533  -21.8694 C   0  0  0  0  0  0  0  0  0  0  0  0
    3.3628  -51.9748  -23.1027 C   0  0  0  0  0  0  0  0  0  0  0  0
  1  2  1  0  0  0
  2 27  1  0  0  0
 27 28  2  0  0  0
 27 29  1  0  0  0
 29 31  1  0  0  0
 31 32  1  0  0  0
 32 33  1  0  0  0
 33 34  1  0  0  0
 34 35  1  0  0  0
 35 36  1  0  0  0
 36 37  1  0  0  0
 37 39  1  0  0  0
 39 40  2  0  0  0
 40 41  1  0  0  0
 41 42  2  0  0  0
 42 43  1  0  0  0
 43 44  2  0  0  0
 44 45  1  0  0  0
 45 46  2  0  0  0
 46 47  1  0  0  0
 47 48  2  0  0  0
 41 49  1  0  0  0
 49 50  1  0  0  0
 50 51  1  0  0  0
 51 52  1  0  0  0
  2  3  1  0  0  0
  3  4  2  0  0  0
  4  5  1  0  0  0
  5  6  2  0  0  0
  6 10  1  0  0  0
 10 11  2  0  0  0
 11 12  1  0  0  0
 12 13  2  0  0  0
 13 16  1  0  0  0
 16 17  1  0  0  0
 17 18  1  0  0  0
 18 19  1  0  0  0
 19 20  1  0  0  0
 20 21  1  0  0  0
 21 22  1  0  0  0
 22 23  1  0  0  0
 23 24  1  0  0  0
 24 25  2  0  0  0
 24 26  1  0  0  0
 13 14  1  0  0  0
 14 15  2  0  0  0
  6  7  1  0  0  0
  7  8  1  0  0  0
  7  9  2  0  0  0
 48 39  1  0  0  0
  9  3  1  0  0  0
 52 40  1  0  0  0
 15 10  1  0  0  0
 48 43  1  0  0  0
 29 30  1  0  0  0
 37 38  1  0  0  0
M  CHG 1  24   1
M  CHG 1  26  -1
M  END
> <minimizedAffinity>
-7.88472

> <CNNscore>
0.2816112936

> <CNNaffinity>
7.3414521217

> <CNN_VS>
2.0674357414

> <CNNaffinity_variance>
1.3762586117

$$$$
[H]c1c([H])c(-c2c([H])c([H])c(C([H])(C(=O)N([H])C([H])([H])C([H])([H])C([H])([H])C([H])([H])C([H])([H])C([H])([H])N([H])c3c4c(nc5c([H])c([H])c([H])c([H])c35)C([H])([H])C([H])([H])C([H])([H])C4([H])[H])C([H])([H])[H])c([H])c2F)c([H])c([H])c1OC([H])([H])C([H])([H])C([H])([H])C([H])([H])C([H])([H])C([H])([H])O[N+](=O)[O-]


 52 56  0  0  0  0  0  0  0  0999 V2000
    3.3739  -47.0431  -20.1425 C   0  0  0  0  0  0  0  0  0  0  0  0
    3.0022  -48.1710  -21.1002 C   0  0  0  0  0  0  0  0  0  0  0  0
    3.0923  -47.6283  -22.4695 C   0  0  0  0  0  0  0  0  0  0  0  0
    3.4235  -48.4687  -23.5061 C   0  0  0  0  0  0  0  0  0  0  0  0
    3.5392  -48.0027  -24.8167 C   0  0  0  0  0  0  0  0  0  0  0  0
    3.3188  -46.6859  -25.0737 C   0  0  0  0  0  0  0  0  0  0  0  0
    2.9868  -45.8292  -24.0527 C   0  0  0  0  0  0  0  0  0  0  0  0
    2.7701  -44.5137  -24.2905 F   0  0  0  0  0  0  0  0  0  0  0  0
    2.8728  -46.3054  -22.7396 C   0  0  0  0  0  0  0  0  0  0  0  0
    3.4264  -46.1746  -26.4275 C   0  0  0  0  0  0  0  0  0  0  0  0
    2.3481  -46.1420  -27.2830 C   0  0  0  0  0  0  0  0  0  0  0  0
    2.4780  -45.6379  -28.5811 C   0  0  0  0  0  0  0  0  0  0  0  0
    3.6663  -45.1546  -29.0730 C   0  0  0  0  0  0  0  0  0  0  0  0
    4.7602  -45.1942  -28.1845 C   0  0  0  0  0  0  0  0  0  0  0  0
    4.6168  -45.6894  -26.9195 C   0  0  0  0  0  0  0  0  0  0  0  0
    3.8788  -44.6497  -30.3305 O   0  0  0  0  0  0  0  0  0  0  0  0
    4.5729  -43.4910  -30.6677 C   0  0  0  0  0  0  0  0  0  0  0  0
    4.4513  -43.2172  -32.1326 C   0  0  0  0  0  0  0  0  0  0  0  0
    5.1601  -44.2739  -32.9276 C   0  0  0  0  0  0  0  0  0  0  0  0
    4.7889  -44.1868  -34.3679 C   0  0  0  0  0  0  0  0  0  0  0  0
    3.3648  -44.5972  -34.6428 C   0  0  0  0  0  0  0  0  0  0  0  0
    3.2168  -46.0768  -34.4368 C   0  0  0  0  0  0  0  0  0  0  0  0
    2.4579  -46.2878  -33.2330 O   0  0  0  0  0  0  0  0  0  0  0  0
    2.6819  -47.4746  -32.5779 N   0  0  0  0  0  0  0  0  0  0  0  0
    3.5705  -47.6041  -31.7154 O   0  0  0  0  0  0  0  0  0  0  0  0
    1.8592  -48.5276  -32.9319 O   0  0  0  0  0  0  0  0  0  0  0  0
    1.7341  -48.8108  -20.7559 C   0  0  0  0  0  0  0  0  0  0  0  0
    0.6292  -48.3213  -21.1823 O   0  0  0  0  0  0  0  0  0  0  0  0
    1.6094  -49.9731  -19.9610 N   0  0  0  0  0  0  0  0  0  0  0  0
    2.4803  -50.4072  -19.5925 H   0  0  0  0  0  0  0  0  0  0  0  0
    0.3542  -50.5933  -19.6345 C   0  0  0  0  0  0  0  0  0  0  0  0
    0.5280  -51.8627  -18.8359 C   0  0  0  0  0  0  0  0  0  0  0  0
   -0.4081  -52.9327  -19.3616 C   0  0  0  0  0  0  0  0  0  0  0  0
    0.4207  -53.8278  -20.2849 C   0  0  0  0  0  0  0  0  0  0  0  0
   -0.2804  -54.0769  -21.5653 C   0  0  0  0  0  0  0  0  0  0  0  0
   -0.8245  -52.8917  -22.2429 C   0  0  0  0  0  0  0  0  0  0  0  0
    0.0266  -52.1116  -23.0361 N   0  0  0  0  0  0  0  0  0  0  0  0
   -0.0506  -51.0364  -22.8839 H   0  0  0  0  0  0  0  0  0  0  0  0
    0.9755  -52.4405  -24.0060 C   0  0  0  0  0  0  0  0  0  0  0  0
    0.5589  -52.8466  -25.2582 C   0  0  0  0  0  0  0  0  0  0  0  0
    1.4946  -53.1245  -26.2270 C   0  0  0  0  0  0  0  0  0  0  0  0
    2.8198  -52.9925  -25.9337 N   0  0  0  0  0  0  0  0  0  0  0  0
    3.2656  -52.6002  -24.7311 C   0  0  0  0  0  0  0  0  0  0  0  0
    4.6069  -52.4712  -24.4613 C   0  0  0  0  0  0  0  0  0  0  0  0
    5.0462  -52.0667  -23.2325 C   0  0  0  0  0  0  0  0  0  0  0  0
    4.1068  -51.7885  -22.2616 C   0  0  0  0  0  0  0  0  0  0  0  0
    2.7694  -51.9092  -22.5051 C   0  0  0  0  0  0  0  0  0  0  0  0
    2.3333  -52.3202  -23.7543 C   0  0  0  0  0  0  0  0  0  0  0  0
    1.0551  -53.5679  -27.5542 C   0  0  0  0  0  0  0  0  0  0  0  0
   -0.2755  -53.0677  -27.9971 C   0  0  0  0  0  0  0  0  0  0  0  0
   -1.0341  -52.2841  -26.9625 C   0  0  0  0  0  0  0  0  0  0  0  0
   -0.8751  -52.9843  -25.6104 C   0  0  0  0  0  0  0  0  0  0  0  0
  1  2  1  0  0  0
  2 27  1  0  0  0
 27 28  2  0  0  0
 27 29  1  0  0  0
 29 31  1  0  0  0
 31 32  1  0  0  0
 32 33  1  0  0  0
 33 34  1  0  0  0
 34 35  1  0  0  0
 35 36  1  0  0  0
 36 37  1  0  0  0
 37 39  1  0  0  0
 39 40  2  0  0  0
 40 41  1  0  0  0
 41 42  2  0  0  0
 42 43  1  0  0  0
 43 44  2  0  0  0
 44 45  1  0  0  0
 45 46  2  0  0  0
 46 47  1  0  0  0
 47 48  2  0  0  0
 41 49  1  0  0  0
 49 50  1  0  0  0
 50 51  1  0  0  0
 51 52  1  0  0  0
  2  3  1  0  0  0
  3  4  2  0  0  0
  4  5  1  0  0  0
  5  6  2  0  0  0
  6 10  1  0  0  0
 10 11  2  0  0  0
 11 12  1  0  0  0
 12 13  2  0  0  0
 13 16  1  0  0  0
 16 17  1  0  0  0
 17 18  1  0  0  0
 18 19  1  0  0  0
 19 20  1  0  0  0
 20 21  1  0  0  0
 21 22  1  0  0  0
 22 23  1  0  0  0
 23 24  1  0  0  0
 24 25  2  0  0  0
 24 26  1  0  0  0
 13 14  1  0  0  0
 14 15  2  0  0  0
  6  7  1  0  0  0
  7  8  1  0  0  0
  7  9  2  0  0  0
 48 39  1  0  0  0
  9  3  1  0  0  0
 52 40  1  0  0  0
 15 10  1  0  0  0
 48 43  1  0  0  0
 29 30  1  0  0  0
 37 38  1  0  0  0
M  CHG 1  24   1
M  CHG 1  26  -1
M  END
> <minimizedAffinity>
-7.65501

> <CNNscore>
0.2796698213

> <CNNaffinity>
7.4801812172

> <CNN_VS>
2.0919809341

> <CNNaffinity_variance>
0.9987058640

$$$$
[H]c1c([H])c(-c2c([H])c([H])c(C([H])(C(=O)N([H])C([H])([H])C([H])([H])C([H])([H])C([H])([H])C([H])([H])C([H])([H])N([H])c3c4c(nc5c([H])c([H])c([H])c([H])c35)C([H])([H])C([H])([H])C([H])([H])C4([H])[H])C([H])([H])[H])c([H])c2F)c([H])c([H])c1OC([H])([H])C([H])([H])C([H])([H])C([H])([H])C([H])([H])C([H])([H])O[N+](=O)[O-]


 52 56  0  0  0  0  0  0  0  0999 V2000
   -1.1764  -55.1046  -23.6175 C   0  0  0  0  0  0  0  0  0  0  0  0
   -0.1577  -53.9705  -23.6796 C   0  0  0  0  0  0  0  0  0  0  0  0
   -0.1210  -53.3433  -22.3443 C   0  0  0  0  0  0  0  0  0  0  0  0
   -0.0614  -54.1423  -21.2269 C   0  0  0  0  0  0  0  0  0  0  0  0
   -0.0423  -53.6004  -19.9408 C   0  0  0  0  0  0  0  0  0  0  0  0
   -0.0838  -52.2498  -19.7901 C   0  0  0  0  0  0  0  0  0  0  0  0
   -0.1436  -51.4334  -20.8930 C   0  0  0  0  0  0  0  0  0  0  0  0
   -0.1917  -50.0865  -20.7604 F   0  0  0  0  0  0  0  0  0  0  0  0
   -0.1624  -51.9859  -22.1809 C   0  0  0  0  0  0  0  0  0  0  0  0
   -0.0595  -51.6583  -18.4652 C   0  0  0  0  0  0  0  0  0  0  0  0
    0.8375  -50.6713  -18.1231 C   0  0  0  0  0  0  0  0  0  0  0  0
    0.8350  -50.1138  -16.8404 C   0  0  0  0  0  0  0  0  0  0  0  0
   -0.0447  -50.5094  -15.8621 C   0  0  0  0  0  0  0  0  0  0  0  0
   -0.9568  -51.5201  -16.2285 C   0  0  0  0  0  0  0  0  0  0  0  0
   -0.9416  -52.0542  -17.4857 C   0  0  0  0  0  0  0  0  0  0  0  0
   -0.1098  -50.0193  -14.5826 O   0  0  0  0  0  0  0  0  0  0  0  0
   -1.1294  -49.2537  -14.0238 C   0  0  0  0  0  0  0  0  0  0  0  0
   -1.5098  -48.1388  -14.9446 C   0  0  0  0  0  0  0  0  0  0  0  0
   -2.9906  -48.1353  -15.1856 C   0  0  0  0  0  0  0  0  0  0  0  0
   -3.6477  -49.2464  -14.4414 C   0  0  0  0  0  0  0  0  0  0  0  0
   -4.3749  -50.2164  -15.3371 C   0  0  0  0  0  0  0  0  0  0  0  0
   -4.4228  -51.5676  -14.6850 C   0  0  0  0  0  0  0  0  0  0  0  0
   -3.9687  -51.4262  -13.3273 O   0  0  0  0  0  0  0  0  0  0  0  0
   -3.2332  -52.4720  -12.8242 N   0  0  0  0  0  0  0  0  0  0  0  0
   -1.9941  -52.4243  -12.7126 O   0  0  0  0  0  0  0  0  0  0  0  0
   -3.9506  -53.5912  -12.4452 O   0  0  0  0  0  0  0  0  0  0  0  0
   -0.3913  -53.0608  -24.7992 C   0  0  0  0  0  0  0  0  0  0  0  0
    0.1232  -51.8871  -24.7935 O   0  0  0  0  0  0  0  0  0  0  0  0
   -1.1665  -53.3715  -25.9398 N   0  0  0  0  0  0  0  0  0  0  0  0
   -1.6041  -54.3143  -25.9895 H   0  0  0  0  0  0  0  0  0  0  0  0
   -1.3835  -52.4667  -27.0357 C   0  0  0  0  0  0  0  0  0  0  0  0
   -0.5067  -52.7790  -28.2244 C   0  0  0  0  0  0  0  0  0  0  0  0
    0.3537  -53.9903  -27.9241 C   0  0  0  0  0  0  0  0  0  0  0  0
    1.7664  -53.6576  -28.4081 C   0  0  0  0  0  0  0  0  0  0  0  0
    2.3132  -52.4760  -27.7026 C   0  0  0  0  0  0  0  0  0  0  0  0
    2.9875  -52.7439  -26.4245 C   0  0  0  0  0  0  0  0  0  0  0  0
    3.8259  -51.7630  -25.8795 N   0  0  0  0  0  0  0  0  0  0  0  0
    4.8906  -51.9137  -26.0493 H   0  0  0  0  0  0  0  0  0  0  0  0
    3.5675  -50.6045  -25.1444 C   0  0  0  0  0  0  0  0  0  0  0  0
    3.3585  -50.6929  -23.7825 C   0  0  0  0  0  0  0  0  0  0  0  0
    3.1512  -49.5459  -23.0525 C   0  0  0  0  0  0  0  0  0  0  0  0
    3.1570  -48.3393  -23.6876 N   0  0  0  0  0  0  0  0  0  0  0  0
    3.3570  -48.2102  -25.0076 C   0  0  0  0  0  0  0  0  0  0  0  0
    3.3619  -46.9819  -25.6240 C   0  0  0  0  0  0  0  0  0  0  0  0
    3.5709  -46.8656  -26.9690 C   0  0  0  0  0  0  0  0  0  0  0  0
    3.7784  -48.0167  -27.7001 C   0  0  0  0  0  0  0  0  0  0  0  0
    3.7780  -49.2478  -27.1111 C   0  0  0  0  0  0  0  0  0  0  0  0
    3.5650  -49.3559  -25.7463 C   0  0  0  0  0  0  0  0  0  0  0  0
    2.9168  -49.6380  -21.6075 C   0  0  0  0  0  0  0  0  0  0  0  0
    3.5564  -50.7931  -20.9193 C   0  0  0  0  0  0  0  0  0  0  0  0
    4.2437  -51.7717  -21.8302 C   0  0  0  0  0  0  0  0  0  0  0  0
    3.3619  -51.9895  -23.0625 C   0  0  0  0  0  0  0  0  0  0  0  0
  1  2  1  0  0  0
  2 27  1  0  0  0
 27 28  2  0  0  0
 27 29  1  0  0  0
 29 31  1  0  0  0
 31 32  1  0  0  0
 32 33  1  0  0  0
 33 34  1  0  0  0
 34 35  1  0  0  0
 35 36  1  0  0  0
 36 37  1  0  0  0
 37 39  1  0  0  0
 39 40  2  0  0  0
 40 41  1  0  0  0
 41 42  2  0  0  0
 42 43  1  0  0  0
 43 44  2  0  0  0
 44 45  1  0  0  0
 45 46  2  0  0  0
 46 47  1  0  0  0
 47 48  2  0  0  0
 41 49  1  0  0  0
 49 50  1  0  0  0
 50 51  1  0  0  0
 51 52  1  0  0  0
  2  3  1  0  0  0
  3  4  2  0  0  0
  4  5  1  0  0  0
  5  6  2  0  0  0
  6 10  1  0  0  0
 10 11  2  0  0  0
 11 12  1  0  0  0
 12 13  2  0  0  0
 13 16  1  0  0  0
 16 17  1  0  0  0
 17 18  1  0  0  0
 18 19  1  0  0  0
 19 20  1  0  0  0
 20 21  1  0  0  0
 21 22  1  0  0  0
 22 23  1  0  0  0
 23 24  1  0  0  0
 24 25  2  0  0  0
 24 26  1  0  0  0
 13 14  1  0  0  0
 14 15  2  0  0  0
  6  7  1  0  0  0
  7  8  1  0  0  0
  7  9  2  0  0  0
 48 39  1  0  0  0
  9  3  1  0  0  0
 52 40  1  0  0  0
 15 10  1  0  0  0
 48 43  1  0  0  0
 29 30  1  0  0  0
 37 38  1  0  0  0
M  CHG 1  24   1
M  CHG 1  26  -1
M  END
> <minimizedAffinity>
-8.06980

> <CNNscore>
0.2483485192

> <CNNaffinity>
7.6322679520

> <CNN_VS>
1.8954623938

> <CNNaffinity_variance>
1.0959417820

$$$$
[H]c1c([H])c(-c2c([H])c([H])c(C([H])(C(=O)N([H])C([H])([H])C([H])([H])C([H])([H])C([H])([H])C([H])([H])C([H])([H])N([H])c3c4c(nc5c([H])c([H])c([H])c([H])c35)C([H])([H])C([H])([H])C([H])([H])C4([H])[H])C([H])([H])[H])c([H])c2F)c([H])c([H])c1OC([H])([H])C([H])([H])C([H])([H])C([H])([H])C([H])([H])C([H])([H])O[N+](=O)[O-]


 52 56  0  0  0  0  0  0  0  0999 V2000
   -1.1812  -55.3100  -23.5575 C   0  0  0  0  0  0  0  0  0  0  0  0
   -0.1732  -54.1648  -23.5441 C   0  0  0  0  0  0  0  0  0  0  0  0
   -0.1654  -53.6062  -22.1782 C   0  0  0  0  0  0  0  0  0  0  0  0
   -1.3448  -53.5303  -21.4755 C   0  0  0  0  0  0  0  0  0  0  0  0
   -1.3953  -52.9948  -20.1876 C   0  0  0  0  0  0  0  0  0  0  0  0
   -0.2501  -52.5374  -19.6148 C   0  0  0  0  0  0  0  0  0  0  0  0
    0.9387  -52.6039  -20.2993 C   0  0  0  0  0  0  0  0  0  0  0  0
    2.0872  -52.1471  -19.7457 F   0  0  0  0  0  0  0  0  0  0  0  0
    0.9805  -53.1431  -21.5922 C   0  0  0  0  0  0  0  0  0  0  0  0
   -0.2717  -51.9808  -18.2748 C   0  0  0  0  0  0  0  0  0  0  0  0
    0.3825  -50.8109  -17.9601 C   0  0  0  0  0  0  0  0  0  0  0  0
    0.3401  -50.2929  -16.6616 C   0  0  0  0  0  0  0  0  0  0  0  0
   -0.3426  -50.9080  -15.6403 C   0  0  0  0  0  0  0  0  0  0  0  0
   -1.0075  -52.1042  -15.9791 C   0  0  0  0  0  0  0  0  0  0  0  0
   -0.9567  -52.5967  -17.2522 C   0  0  0  0  0  0  0  0  0  0  0  0
   -0.4294  -50.4707  -14.3431 O   0  0  0  0  0  0  0  0  0  0  0  0
   -0.1567  -49.1922  -13.8643 C   0  0  0  0  0  0  0  0  0  0  0  0
   -1.4283  -48.4587  -13.5804 C   0  0  0  0  0  0  0  0  0  0  0  0
   -2.2355  -48.2970  -14.8346 C   0  0  0  0  0  0  0  0  0  0  0  0
   -3.6348  -48.7634  -14.6239 C   0  0  0  0  0  0  0  0  0  0  0  0
   -3.9206  -50.0995  -15.2604 C   0  0  0  0  0  0  0  0  0  0  0  0
   -4.7127  -50.9518  -14.3119 C   0  0  0  0  0  0  0  0  0  0  0  0
   -4.3686  -52.3279  -14.5520 O   0  0  0  0  0  0  0  0  0  0  0  0
   -5.4105  -53.2234  -14.5322 N   0  0  0  0  0  0  0  0  0  0  0  0
   -6.3031  -53.1904  -13.6649 O   0  0  0  0  0  0  0  0  0  0  0  0
   -5.4138  -54.1725  -15.5373 O   0  0  0  0  0  0  0  0  0  0  0  0
   -0.3974  -53.2013  -24.6199 C   0  0  0  0  0  0  0  0  0  0  0  0
   -0.2495  -51.9471  -24.4022 O   0  0  0  0  0  0  0  0  0  0  0  0
   -0.7780  -53.5416  -25.9381 N   0  0  0  0  0  0  0  0  0  0  0  0
   -0.9093  -54.5492  -26.1627 H   0  0  0  0  0  0  0  0  0  0  0  0
   -0.9905  -52.5818  -26.9871 C   0  0  0  0  0  0  0  0  0  0  0  0
    0.2005  -52.4583  -27.9065 C   0  0  0  0  0  0  0  0  0  0  0  0
    1.1912  -53.5683  -27.6160 C   0  0  0  0  0  0  0  0  0  0  0  0
    2.5509  -52.9002  -27.4031 C   0  0  0  0  0  0  0  0  0  0  0  0
    2.8834  -52.8023  -25.9633 C   0  0  0  0  0  0  0  0  0  0  0  0
    3.2009  -51.4565  -25.4657 C   0  0  0  0  0  0  0  0  0  0  0  0
    2.8112  -51.1021  -24.1678 N   0  0  0  0  0  0  0  0  0  0  0  0
    1.7604  -51.2667  -23.9358 H   0  0  0  0  0  0  0  0  0  0  0  0
    3.5130  -50.5670  -23.0859 C   0  0  0  0  0  0  0  0  0  0  0  0
    4.8854  -50.7061  -23.0266 C   0  0  0  0  0  0  0  0  0  0  0  0
    5.5801  -50.1375  -21.9847 C   0  0  0  0  0  0  0  0  0  0  0  0
    4.9002  -49.4440  -21.0276 N   0  0  0  0  0  0  0  0  0  0  0  0
    3.5686  -49.2850  -21.0489 C   0  0  0  0  0  0  0  0  0  0  0  0
    2.9066  -48.5781  -20.0739 C   0  0  0  0  0  0  0  0  0  0  0  0
    1.5500  -48.4211  -20.1109 C   0  0  0  0  0  0  0  0  0  0  0  0
    0.8542  -48.9921  -21.1562 C   0  0  0  0  0  0  0  0  0  0  0  0
    1.4888  -49.6987  -22.1362 C   0  0  0  0  0  0  0  0  0  0  0  0
    2.8650  -49.8528  -22.0902 C   0  0  0  0  0  0  0  0  0  0  0  0
    7.0367  -50.2942  -21.9128 C   0  0  0  0  0  0  0  0  0  0  0  0
    7.7383  -50.4396  -23.2180 C   0  0  0  0  0  0  0  0  0  0  0  0
    6.8348  -50.5353  -24.4156 C   0  0  0  0  0  0  0  0  0  0  0  0
    5.6530  -51.4415  -24.0608 C   0  0  0  0  0  0  0  0  0  0  0  0
  1  2  1  0  0  0
  2 27  1  0  0  0
 27 28  2  0  0  0
 27 29  1  0  0  0
 29 31  1  0  0  0
 31 32  1  0  0  0
 32 33  1  0  0  0
 33 34  1  0  0  0
 34 35  1  0  0  0
 35 36  1  0  0  0
 36 37  1  0  0  0
 37 39  1  0  0  0
 39 40  2  0  0  0
 40 41  1  0  0  0
 41 42  2  0  0  0
 42 43  1  0  0  0
 43 44  2  0  0  0
 44 45  1  0  0  0
 45 46  2  0  0  0
 46 47  1  0  0  0
 47 48  2  0  0  0
 41 49  1  0  0  0
 49 50  1  0  0  0
 50 51  1  0  0  0
 51 52  1  0  0  0
  2  3  1  0  0  0
  3  4  2  0  0  0
  4  5  1  0  0  0
  5  6  2  0  0  0
  6 10  1  0  0  0
 10 11  2  0  0  0
 11 12  1  0  0  0
 12 13  2  0  0  0
 13 16  1  0  0  0
 16 17  1  0  0  0
 17 18  1  0  0  0
 18 19  1  0  0  0
 19 20  1  0  0  0
 20 21  1  0  0  0
 21 22  1  0  0  0
 22 23  1  0  0  0
 23 24  1  0  0  0
 24 25  2  0  0  0
 24 26  1  0  0  0
 13 14  1  0  0  0
 14 15  2  0  0  0
  6  7  1  0  0  0
  7  8  1  0  0  0
  7  9  2  0  0  0
 48 39  1  0  0  0
  9  3  1  0  0  0
 52 40  1  0  0  0
 15 10  1  0  0  0
 48 43  1  0  0  0
 29 30  1  0  0  0
 37 38  1  0  0  0
M  CHG 1  24   1
M  CHG 1  26  -1
M  END
> <minimizedAffinity>
-7.71736

> <CNNscore>
0.2408555597

> <CNNaffinity>
7.8539566994

> <CNN_VS>
1.8916691542

> <CNNaffinity_variance>
0.7039666176

$$$$
[H]c1c([H])c(-c2c([H])c([H])c(C([H])(C(=O)N([H])C([H])([H])C([H])([H])C([H])([H])C([H])([H])C([H])([H])C([H])([H])N([H])c3c4c(nc5c([H])c([H])c([H])c([H])c35)C([H])([H])C([H])([H])C([H])([H])C4([H])[H])C([H])([H])[H])c([H])c2F)c([H])c([H])c1OC([H])([H])C([H])([H])C([H])([H])C([H])([H])C([H])([H])C([H])([H])O[N+](=O)[O-]


 52 56  0  0  0  0  0  0  0  0999 V2000
    3.4270  -47.0548  -20.2516 C   0  0  0  0  0  0  0  0  0  0  0  0
    3.0226  -48.2041  -21.1700 C   0  0  0  0  0  0  0  0  0  0  0  0
    3.1047  -47.7045  -22.5561 C   0  0  0  0  0  0  0  0  0  0  0  0
    3.4063  -48.5819  -23.5709 C   0  0  0  0  0  0  0  0  0  0  0  0
    3.5132  -48.1579  -24.8964 C   0  0  0  0  0  0  0  0  0  0  0  0
    3.3141  -46.8454  -25.1903 C   0  0  0  0  0  0  0  0  0  0  0  0
    3.0118  -45.9522  -24.1917 C   0  0  0  0  0  0  0  0  0  0  0  0
    2.8166  -44.6406  -24.4665 F   0  0  0  0  0  0  0  0  0  0  0  0
    2.9064  -46.3865  -22.8634 C   0  0  0  0  0  0  0  0  0  0  0  0
    3.4132  -46.3772  -26.5603 C   0  0  0  0  0  0  0  0  0  0  0  0
    2.2987  -46.1493  -27.3359 C   0  0  0  0  0  0  0  0  0  0  0  0
    2.4225  -45.6918  -28.6518 C   0  0  0  0  0  0  0  0  0  0  0  0
    3.6398  -45.4475  -29.2400 C   0  0  0  0  0  0  0  0  0  0  0  0
    4.7708  -45.6850  -28.4324 C   0  0  0  0  0  0  0  0  0  0  0  0
    4.6329  -46.1315  -27.1488 C   0  0  0  0  0  0  0  0  0  0  0  0
    3.8478  -45.0045  -30.5214 O   0  0  0  0  0  0  0  0  0  0  0  0
    4.6847  -43.9700  -30.9305 C   0  0  0  0  0  0  0  0  0  0  0  0
    4.0799  -43.2339  -32.0830 C   0  0  0  0  0  0  0  0  0  0  0  0
    4.8683  -41.9950  -32.3901 C   0  0  0  0  0  0  0  0  0  0  0  0
    4.8996  -41.7412  -33.8580 C   0  0  0  0  0  0  0  0  0  0  0  0
    5.8121  -42.6791  -34.6062 C   0  0  0  0  0  0  0  0  0  0  0  0
    7.2428  -42.3074  -34.3448 C   0  0  0  0  0  0  0  0  0  0  0  0
    8.0485  -43.4888  -34.5021 O   0  0  0  0  0  0  0  0  0  0  0  0
    9.1967  -43.5417  -33.7494 N   0  0  0  0  0  0  0  0  0  0  0  0
    9.3678  -44.3861  -32.8506 O   0  0  0  0  0  0  0  0  0  0  0  0
   10.1612  -42.5971  -34.0469 O   0  0  0  0  0  0  0  0  0  0  0  0
    1.7479  -48.8097  -20.7905 C   0  0  0  0  0  0  0  0  0  0  0  0
    0.6454  -48.2965  -21.1950 O   0  0  0  0  0  0  0  0  0  0  0  0
    1.6136  -49.9624  -19.9833 N   0  0  0  0  0  0  0  0  0  0  0  0
    2.4822  -50.4149  -19.6317 H   0  0  0  0  0  0  0  0  0  0  0  0
    0.3518  -50.5489  -19.6222 C   0  0  0  0  0  0  0  0  0  0  0  0
    0.5134  -51.8129  -18.8125 C   0  0  0  0  0  0  0  0  0  0  0  0
   -0.4361  -52.8770  -19.3260 C   0  0  0  0  0  0  0  0  0  0  0  0
    0.3824  -53.7959  -20.2349 C   0  0  0  0  0  0  0  0  0  0  0  0
   -0.3490  -54.1088  -21.4840 C   0  0  0  0  0  0  0  0  0  0  0  0
   -0.8887  -52.9570  -22.2201 C   0  0  0  0  0  0  0  0  0  0  0  0
   -0.0179  -52.1708  -22.9855 N   0  0  0  0  0  0  0  0  0  0  0  0
   -0.0695  -51.0999  -22.7965 H   0  0  0  0  0  0  0  0  0  0  0  0
    0.9241  -52.4889  -23.9656 C   0  0  0  0  0  0  0  0  0  0  0  0
    0.4988  -52.8971  -25.2141 C   0  0  0  0  0  0  0  0  0  0  0  0
    1.4272  -53.1643  -26.1929 C   0  0  0  0  0  0  0  0  0  0  0  0
    2.7540  -53.0201  -25.9128 N   0  0  0  0  0  0  0  0  0  0  0  0
    3.2082  -52.6254  -24.7141 C   0  0  0  0  0  0  0  0  0  0  0  0
    4.5509  -52.4840  -24.4577 C   0  0  0  0  0  0  0  0  0  0  0  0
    4.9987  -52.0773  -23.2328 C   0  0  0  0  0  0  0  0  0  0  0  0
    4.0666  -51.8097  -22.2518 C   0  0  0  0  0  0  0  0  0  0  0  0
    2.7280  -51.9428  -22.4820 C   0  0  0  0  0  0  0  0  0  0  0  0
    2.2832  -52.3561  -23.7275 C   0  0  0  0  0  0  0  0  0  0  0  0
    0.9786  -53.6098  -27.5163 C   0  0  0  0  0  0  0  0  0  0  0  0
   -0.3613  -53.1217  -27.9448 C   0  0  0  0  0  0  0  0  0  0  0  0
   -1.1168  -52.3471  -26.9013 C   0  0  0  0  0  0  0  0  0  0  0  0
   -0.9374  -53.0480  -25.5520 C   0  0  0  0  0  0  0  0  0  0  0  0
  1  2  1  0  0  0
  2 27  1  0  0  0
 27 28  2  0  0  0
 27 29  1  0  0  0
 29 31  1  0  0  0
 31 32  1  0  0  0
 32 33  1  0  0  0
 33 34  1  0  0  0
 34 35  1  0  0  0
 35 36  1  0  0  0
 36 37  1  0  0  0
 37 39  1  0  0  0
 39 40  2  0  0  0
 40 41  1  0  0  0
 41 42  2  0  0  0
 42 43  1  0  0  0
 43 44  2  0  0  0
 44 45  1  0  0  0
 45 46  2  0  0  0
 46 47  1  0  0  0
 47 48  2  0  0  0
 41 49  1  0  0  0
 49 50  1  0  0  0
 50 51  1  0  0  0
 51 52  1  0  0  0
  2  3  1  0  0  0
  3  4  2  0  0  0
  4  5  1  0  0  0
  5  6  2  0  0  0
  6 10  1  0  0  0
 10 11  2  0  0  0
 11 12  1  0  0  0
 12 13  2  0  0  0
 13 16  1  0  0  0
 16 17  1  0  0  0
 17 18  1  0  0  0
 18 19  1  0  0  0
 19 20  1  0  0  0
 20 21  1  0  0  0
 21 22  1  0  0  0
 22 23  1  0  0  0
 23 24  1  0  0  0
 24 25  2  0  0  0
 24 26  1  0  0  0
 13 14  1  0  0  0
 14 15  2  0  0  0
  6  7  1  0  0  0
  7  8  1  0  0  0
  7  9  2  0  0  0
 48 39  1  0  0  0
  9  3  1  0  0  0
 52 40  1  0  0  0
 15 10  1  0  0  0
 48 43  1  0  0  0
 29 30  1  0  0  0
 37 38  1  0  0  0
M  CHG 1  24   1
M  CHG 1  26  -1
M  END
> <minimizedAffinity>
-6.80439

> <CNNscore>
0.2271606326

> <CNNaffinity>
7.1103143692

> <CNN_VS>
1.6151834726

> <CNNaffinity_variance>
0.6802587509

$$$$
[H]c1c([H])c(-c2c([H])c([H])c(C([H])(C(=O)N([H])C([H])([H])C([H])([H])C([H])([H])C([H])([H])C([H])([H])C([H])([H])N([H])c3c4c(nc5c([H])c([H])c([H])c([H])c35)C([H])([H])C([H])([H])C([H])([H])C4([H])[H])C([H])([H])[H])c([H])c2F)c([H])c([H])c1OC([H])([H])C([H])([H])C([H])([H])C([H])([H])C([H])([H])C([H])([H])O[N+](=O)[O-]


 52 56  0  0  0  0  0  0  0  0999 V2000
    3.5233  -46.7887  -20.8070 C   0  0  0  0  0  0  0  0  0  0  0  0
    3.1450  -48.0772  -21.5311 C   0  0  0  0  0  0  0  0  0  0  0  0
    3.1991  -47.7962  -22.9788 C   0  0  0  0  0  0  0  0  0  0  0  0
    3.1814  -48.8441  -23.8688 C   0  0  0  0  0  0  0  0  0  0  0  0
    3.2482  -48.6340  -25.2470 C   0  0  0  0  0  0  0  0  0  0  0  0
    3.3326  -47.3621  -25.7200 C   0  0  0  0  0  0  0  0  0  0  0  0
    3.3518  -46.3009  -24.8482 C   0  0  0  0  0  0  0  0  0  0  0  0
    3.4418  -45.0283  -25.3025 F   0  0  0  0  0  0  0  0  0  0  0  0
    3.2844  -46.5209  -23.4658 C   0  0  0  0  0  0  0  0  0  0  0  0
    3.3976  -47.1133  -27.1482 C   0  0  0  0  0  0  0  0  0  0  0  0
    2.5175  -46.2650  -27.7819 C   0  0  0  0  0  0  0  0  0  0  0  0
    2.6064  -46.0381  -29.1590 C   0  0  0  0  0  0  0  0  0  0  0  0
    3.5581  -46.6365  -29.9488 C   0  0  0  0  0  0  0  0  0  0  0  0
    4.4519  -47.5013  -29.2848 C   0  0  0  0  0  0  0  0  0  0  0  0
    4.3519  -47.7121  -27.9388 C   0  0  0  0  0  0  0  0  0  0  0  0
    3.7100  -46.4723  -31.3021 O   0  0  0  0  0  0  0  0  0  0  0  0
    4.8682  -46.6648  -32.0502 C   0  0  0  0  0  0  0  0  0  0  0  0
    4.6725  -46.1780  -33.4503 C   0  0  0  0  0  0  0  0  0  0  0  0
    3.2471  -45.7649  -33.6709 C   0  0  0  0  0  0  0  0  0  0  0  0
    3.1586  -44.7278  -34.7370 C   0  0  0  0  0  0  0  0  0  0  0  0
    4.3268  -43.7754  -34.7413 C   0  0  0  0  0  0  0  0  0  0  0  0
    3.9772  -42.5436  -33.9577 C   0  0  0  0  0  0  0  0  0  0  0  0
    4.8702  -42.4597  -32.8329 O   0  0  0  0  0  0  0  0  0  0  0  0
    4.2795  -42.2917  -31.6039 N   0  0  0  0  0  0  0  0  0  0  0  0
    4.1222  -43.2330  -30.8042 O   0  0  0  0  0  0  0  0  0  0  0  0
    3.8650  -41.0083  -31.3003 O   0  0  0  0  0  0  0  0  0  0  0  0
    1.8926  -48.6525  -21.0450 C   0  0  0  0  0  0  0  0  0  0  0  0
    0.7738  -48.1007  -21.3387 O   0  0  0  0  0  0  0  0  0  0  0  0
    1.7979  -49.8147  -20.2459 N   0  0  0  0  0  0  0  0  0  0  0  0
    2.6809  -50.2981  -19.9824 H   0  0  0  0  0  0  0  0  0  0  0  0
    0.5572  -50.3709  -19.7790 C   0  0  0  0  0  0  0  0  0  0  0  0
    0.7579  -51.6234  -18.9603 C   0  0  0  0  0  0  0  0  0  0  0  0
   -0.2683  -52.6662  -19.3564 C   0  0  0  0  0  0  0  0  0  0  0  0
    0.4797  -53.7424  -20.1456 C   0  0  0  0  0  0  0  0  0  0  0  0
   -0.2080  -54.0515  -21.4202 C   0  0  0  0  0  0  0  0  0  0  0  0
   -0.7879  -52.9050  -22.1336 C   0  0  0  0  0  0  0  0  0  0  0  0
    0.0350  -52.1352  -22.9658 N   0  0  0  0  0  0  0  0  0  0  0  0
   -0.0442  -51.0578  -22.8313 H   0  0  0  0  0  0  0  0  0  0  0  0
    0.9570  -52.4770  -23.9568 C   0  0  0  0  0  0  0  0  0  0  0  0
    0.5071  -52.8612  -25.2044 C   0  0  0  0  0  0  0  0  0  0  0  0
    1.4173  -53.1517  -26.1936 C   0  0  0  0  0  0  0  0  0  0  0  0
    2.7506  -53.0538  -25.9248 N   0  0  0  0  0  0  0  0  0  0  0  0
    3.2285  -52.6837  -24.7275 C   0  0  0  0  0  0  0  0  0  0  0  0
    4.5774  -52.5889  -24.4824 C   0  0  0  0  0  0  0  0  0  0  0  0
    5.0495  -52.2067  -23.2588 C   0  0  0  0  0  0  0  0  0  0  0  0
    4.1357  -51.9158  -22.2673 C   0  0  0  0  0  0  0  0  0  0  0  0
    2.7914  -52.0026  -22.4861 C   0  0  0  0  0  0  0  0  0  0  0  0
    2.3219  -52.3913  -23.7303 C   0  0  0  0  0  0  0  0  0  0  0  0
    0.9421  -53.5719  -27.5161 C   0  0  0  0  0  0  0  0  0  0  0  0
   -0.3845  -53.0362  -27.9286 C   0  0  0  0  0  0  0  0  0  0  0  0
   -1.1043  -52.2449  -26.8724 C   0  0  0  0  0  0  0  0  0  0  0  0
   -0.9363  -52.9617  -25.5301 C   0  0  0  0  0  0  0  0  0  0  0  0
  1  2  1  0  0  0
  2 27  1  0  0  0
 27 28  2  0  0  0
 27 29  1  0  0  0
 29 31  1  0  0  0
 31 32  1  0  0  0
 32 33  1  0  0  0
 33 34  1  0  0  0
 34 35  1  0  0  0
 35 36  1  0  0  0
 36 37  1  0  0  0
 37 39  1  0  0  0
 39 40  2  0  0  0
 40 41  1  0  0  0
 41 42  2  0  0  0
 42 43  1  0  0  0
 43 44  2  0  0  0
 44 45  1  0  0  0
 45 46  2  0  0  0
 46 47  1  0  0  0
 47 48  2  0  0  0
 41 49  1  0  0  0
 49 50  1  0  0  0
 50 51  1  0  0  0
 51 52  1  0  0  0
  2  3  1  0  0  0
  3  4  2  0  0  0
  4  5  1  0  0  0
  5  6  2  0  0  0
  6 10  1  0  0  0
 10 11  2  0  0  0
 11 12  1  0  0  0
 12 13  2  0  0  0
 13 16  1  0  0  0
 16 17  1  0  0  0
 17 18  1  0  0  0
 18 19  1  0  0  0
 19 20  1  0  0  0
 20 21  1  0  0  0
 21 22  1  0  0  0
 22 23  1  0  0  0
 23 24  1  0  0  0
 24 25  2  0  0  0
 24 26  1  0  0  0
 13 14  1  0  0  0
 14 15  2  0  0  0
  6  7  1  0  0  0
  7  8  1  0  0  0
  7  9  2  0  0  0
 48 39  1  0  0  0
  9  3  1  0  0  0
 52 40  1  0  0  0
 15 10  1  0  0  0
 48 43  1  0  0  0
 29 30  1  0  0  0
 37 38  1  0  0  0
M  CHG 1  24   1
M  CHG 1  26  -1
M  END
> <minimizedAffinity>
-7.64882

> <CNNscore>
0.2089182734

> <CNNaffinity>
7.0752067566

> <CNN_VS>
1.4781399965

> <CNNaffinity_variance>
1.5583088398

$$$$
[H]c1c([H])c(-c2c([H])c([H])c(C([H])(C(=O)N([H])C([H])([H])C([H])([H])C([H])([H])C([H])([H])C([H])([H])C([H])([H])N([H])c3c4c(nc5c([H])c([H])c([H])c([H])c35)C([H])([H])C([H])([H])C([H])([H])C4([H])[H])C([H])([H])[H])c([H])c2F)c([H])c([H])c1OC([H])([H])C([H])([H])C([H])([H])C([H])([H])C([H])([H])C([H])([H])O[N+](=O)[O-]


 52 56  0  0  0  0  0  0  0  0999 V2000
    3.8392  -46.6074  -21.0548 C   0  0  0  0  0  0  0  0  0  0  0  0
    3.3853  -47.9081  -21.7105 C   0  0  0  0  0  0  0  0  0  0  0  0
    3.3108  -47.6615  -23.1635 C   0  0  0  0  0  0  0  0  0  0  0  0
    3.3322  -46.3676  -23.6285 C   0  0  0  0  0  0  0  0  0  0  0  0
    3.2468  -46.0790  -24.9914 C   0  0  0  0  0  0  0  0  0  0  0  0
    3.1401  -47.1025  -25.8800 C   0  0  0  0  0  0  0  0  0  0  0  0
    3.1169  -48.4023  -25.4368 C   0  0  0  0  0  0  0  0  0  0  0  0
    3.0048  -49.4330  -26.3081 F   0  0  0  0  0  0  0  0  0  0  0  0
    3.2031  -48.6832  -24.0665 C   0  0  0  0  0  0  0  0  0  0  0  0
    3.0554  -46.8324  -27.3033 C   0  0  0  0  0  0  0  0  0  0  0  0
    2.0857  -46.0115  -27.8338 C   0  0  0  0  0  0  0  0  0  0  0  0
    2.0307  -45.7629  -29.2090 C   0  0  0  0  0  0  0  0  0  0  0  0
    2.9228  -46.3125  -30.0977 C   0  0  0  0  0  0  0  0  0  0  0  0
    3.9097  -47.1499  -29.5386 C   0  0  0  0  0  0  0  0  0  0  0  0
    3.9500  -47.3823  -28.1931 C   0  0  0  0  0  0  0  0  0  0  0  0
    2.9351  -46.1245  -31.4563 O   0  0  0  0  0  0  0  0  0  0  0  0
    2.8279  -47.1002  -32.4436 C   0  0  0  0  0  0  0  0  0  0  0  0
    3.7251  -46.7783  -33.5955 C   0  0  0  0  0  0  0  0  0  0  0  0
    5.1653  -46.8831  -33.1881 C   0  0  0  0  0  0  0  0  0  0  0  0
    5.7901  -45.5326  -33.1107 C   0  0  0  0  0  0  0  0  0  0  0  0
    7.2476  -45.5706  -32.7281 C   0  0  0  0  0  0  0  0  0  0  0  0
    7.3992  -46.2126  -31.3796 C   0  0  0  0  0  0  0  0  0  0  0  0
    8.6314  -46.9550  -31.3729 O   0  0  0  0  0  0  0  0  0  0  0  0
    8.5123  -48.3235  -31.4017 N   0  0  0  0  0  0  0  0  0  0  0  0
    8.0132  -48.9304  -32.3675 O   0  0  0  0  0  0  0  0  0  0  0  0
    8.9811  -48.9967  -30.2890 O   0  0  0  0  0  0  0  0  0  0  0  0
    2.1768  -48.4579  -21.0997 C   0  0  0  0  0  0  0  0  0  0  0  0
    1.0356  -47.9260  -21.3384 O   0  0  0  0  0  0  0  0  0  0  0  0
    2.1502  -49.5736  -20.2320 N   0  0  0  0  0  0  0  0  0  0  0  0
    3.0536  -50.0394  -20.0093 H   0  0  0  0  0  0  0  0  0  0  0  0
    0.9518  -50.1054  -19.6422 C   0  0  0  0  0  0  0  0  0  0  0  0
    0.2391  -51.0729  -20.5561 C   0  0  0  0  0  0  0  0  0  0  0  0
    0.0547  -52.4030  -19.8529 C   0  0  0  0  0  0  0  0  0  0  0  0
   -0.9490  -53.2049  -20.6836 C   0  0  0  0  0  0  0  0  0  0  0  0
   -0.2699  -53.9834  -21.7447 C   0  0  0  0  0  0  0  0  0  0  0  0
   -0.6422  -53.6498  -23.1266 C   0  0  0  0  0  0  0  0  0  0  0  0
    0.0912  -52.6722  -23.8112 N   0  0  0  0  0  0  0  0  0  0  0  0
   -0.2317  -51.6460  -23.6445 H   0  0  0  0  0  0  0  0  0  0  0  0
    1.1770  -52.7484  -24.6854 C   0  0  0  0  0  0  0  0  0  0  0  0
    0.9644  -53.0693  -26.0114 C   0  0  0  0  0  0  0  0  0  0  0  0
    2.0293  -53.0974  -26.8813 C   0  0  0  0  0  0  0  0  0  0  0  0
    3.2784  -52.8061  -26.4184 N   0  0  0  0  0  0  0  0  0  0  0  0
    3.5271  -52.4890  -25.1391 C   0  0  0  0  0  0  0  0  0  0  0  0
    4.7951  -52.1957  -24.6977 C   0  0  0  0  0  0  0  0  0  0  0  0
    5.0326  -51.8705  -23.3922 C   0  0  0  0  0  0  0  0  0  0  0  0
    3.9639  -51.8428  -22.5206 C   0  0  0  0  0  0  0  0  0  0  0  0
    2.6957  -52.1303  -22.9348 C   0  0  0  0  0  0  0  0  0  0  0  0
    2.4644  -52.4592  -24.2607 C   0  0  0  0  0  0  0  0  0  0  0  0
    1.8080  -53.4499  -28.2878 C   0  0  0  0  0  0  0  0  0  0  0  0
    0.4691  -53.1039  -28.8399 C   0  0  0  0  0  0  0  0  0  0  0  0
   -0.5088  -52.5600  -27.8360 C   0  0  0  0  0  0  0  0  0  0  0  0
   -0.3845  -53.3756  -26.5463 C   0  0  0  0  0  0  0  0  0  0  0  0
  1  2  1  0  0  0
  2 27  1  0  0  0
 27 28  2  0  0  0
 27 29  1  0  0  0
 29 31  1  0  0  0
 31 32  1  0  0  0
 32 33  1  0  0  0
 33 34  1  0  0  0
 34 35  1  0  0  0
 35 36  1  0  0  0
 36 37  1  0  0  0
 37 39  1  0  0  0
 39 40  2  0  0  0
 40 41  1  0  0  0
 41 42  2  0  0  0
 42 43  1  0  0  0
 43 44  2  0  0  0
 44 45  1  0  0  0
 45 46  2  0  0  0
 46 47  1  0  0  0
 47 48  2  0  0  0
 41 49  1  0  0  0
 49 50  1  0  0  0
 50 51  1  0  0  0
 51 52  1  0  0  0
  2  3  1  0  0  0
  3  4  2  0  0  0
  4  5  1  0  0  0
  5  6  2  0  0  0
  6 10  1  0  0  0
 10 11  2  0  0  0
 11 12  1  0  0  0
 12 13  2  0  0  0
 13 16  1  0  0  0
 16 17  1  0  0  0
 17 18  1  0  0  0
 18 19  1  0  0  0
 19 20  1  0  0  0
 20 21  1  0  0  0
 21 22  1  0  0  0
 22 23  1  0  0  0
 23 24  1  0  0  0
 24 25  2  0  0  0
 24 26  1  0  0  0
 13 14  1  0  0  0
 14 15  2  0  0  0
  6  7  1  0  0  0
  7  8  1  0  0  0
  7  9  2  0  0  0
 48 39  1  0  0  0
  9  3  1  0  0  0
 52 40  1  0  0  0
 15 10  1  0  0  0
 48 43  1  0  0  0
 29 30  1  0  0  0
 37 38  1  0  0  0
M  CHG 1  24   1
M  CHG 1  26  -1
M  END
> <minimizedAffinity>
-7.52550

> <CNNscore>
0.1729849875

> <CNNaffinity>
7.2413558960

> <CNN_VS>
1.2526458502

> <CNNaffinity_variance>
1.6936601400

$$$$
[H]c1c([H])c(-c2c([H])c([H])c(C([H])(C(=O)N([H])C([H])([H])C([H])([H])C([H])([H])C([H])([H])C([H])([H])C([H])([H])N([H])c3c4c(nc5c([H])c([H])c([H])c([H])c35)C([H])([H])C([H])([H])C([H])([H])C4([H])[H])C([H])([H])[H])c([H])c2F)c([H])c([H])c1OC([H])([H])C([H])([H])C([H])([H])C([H])([H])C([H])([H])C([H])([H])O[N+](=O)[O-]


 52 56  0  0  0  0  0  0  0  0999 V2000
    5.8045  -52.2352  -24.3076 C   0  0  0  0  0  0  0  0  0  0  0  0
    6.4951  -51.0370  -23.6632 C   0  0  0  0  0  0  0  0  0  0  0  0
    5.7880  -50.7536  -22.3993 C   0  0  0  0  0  0  0  0  0  0  0  0
    6.0936  -49.6106  -21.6989 C   0  0  0  0  0  0  0  0  0  0  0  0
    5.4669  -49.3045  -20.4899 C   0  0  0  0  0  0  0  0  0  0  0  0
    4.5318  -50.1576  -19.9936 C   0  0  0  0  0  0  0  0  0  0  0  0
    4.2116  -51.3050  -20.6773 C   0  0  0  0  0  0  0  0  0  0  0  0
    3.2870  -52.1684  -20.1939 F   0  0  0  0  0  0  0  0  0  0  0  0
    4.8457  -51.6047  -21.8907 C   0  0  0  0  0  0  0  0  0  0  0  0
    3.8599  -49.8621  -18.7417 C   0  0  0  0  0  0  0  0  0  0  0  0
    3.2067  -48.6691  -18.5281 C   0  0  0  0  0  0  0  0  0  0  0  0
    2.5616  -48.4125  -17.3140 C   0  0  0  0  0  0  0  0  0  0  0  0
    2.5412  -49.3169  -16.2800 C   0  0  0  0  0  0  0  0  0  0  0  0
    3.2137  -50.5335  -16.5149 C   0  0  0  0  0  0  0  0  0  0  0  0
    3.8387  -50.7689  -17.7066 C   0  0  0  0  0  0  0  0  0  0  0  0
    1.9383  -49.1419  -15.0604 O   0  0  0  0  0  0  0  0  0  0  0  0
    1.4977  -50.1330  -14.1877 C   0  0  0  0  0  0  0  0  0  0  0  0
    0.1239  -50.5873  -14.5644 C   0  0  0  0  0  0  0  0  0  0  0  0
   -0.5742  -49.5382  -15.3786 C   0  0  0  0  0  0  0  0  0  0  0  0
   -1.4918  -48.7329  -14.5243 C   0  0  0  0  0  0  0  0  0  0  0  0
   -2.7655  -48.3362  -15.2259 C   0  0  0  0  0  0  0  0  0  0  0  0
   -3.9253  -49.0739  -14.6226 C   0  0  0  0  0  0  0  0  0  0  0  0
   -3.4632  -50.3708  -14.2053 O   0  0  0  0  0  0  0  0  0  0  0  0
   -3.9553  -51.4429  -14.9096 N   0  0  0  0  0  0  0  0  0  0  0  0
   -5.1194  -51.8599  -14.7645 O   0  0  0  0  0  0  0  0  0  0  0  0
   -3.0791  -52.0396  -15.7969 O   0  0  0  0  0  0  0  0  0  0  0  0
    6.6344  -49.9053  -24.5773 C   0  0  0  0  0  0  0  0  0  0  0  0
    7.7156  -49.2175  -24.5905 O   0  0  0  0  0  0  0  0  0  0  0  0
    5.6417  -49.4818  -25.4903 N   0  0  0  0  0  0  0  0  0  0  0  0
    4.7460  -50.0109  -25.5163 H   0  0  0  0  0  0  0  0  0  0  0  0
    5.7956  -48.3685  -26.3866 C   0  0  0  0  0  0  0  0  0  0  0  0
    4.7556  -47.2976  -26.1609 C   0  0  0  0  0  0  0  0  0  0  0  0
    4.6921  -46.9453  -24.6880 C   0  0  0  0  0  0  0  0  0  0  0  0
    3.2457  -47.1704  -24.2434 C   0  0  0  0  0  0  0  0  0  0  0  0
    3.1755  -48.0876  -23.0828 C   0  0  0  0  0  0  0  0  0  0  0  0
    2.5778  -49.4056  -23.3388 C   0  0  0  0  0  0  0  0  0  0  0  0
    1.4245  -49.7771  -22.6358 N   0  0  0  0  0  0  0  0  0  0  0  0
    0.9084  -48.9655  -22.1257 H   0  0  0  0  0  0  0  0  0  0  0  0
    0.7881  -51.0059  -22.4509 C   0  0  0  0  0  0  0  0  0  0  0  0
    0.5612  -51.8272  -23.5374 C   0  0  0  0  0  0  0  0  0  0  0  0
   -0.0229  -53.0576  -23.3469 C   0  0  0  0  0  0  0  0  0  0  0  0
   -0.3671  -53.4461  -22.0859 N   0  0  0  0  0  0  0  0  0  0  0  0
   -0.1631  -52.6791  -21.0047 C   0  0  0  0  0  0  0  0  0  0  0  0
   -0.5156  -53.0949  -19.7431 C   0  0  0  0  0  0  0  0  0  0  0  0
   -0.2980  -52.3043  -18.6505 C   0  0  0  0  0  0  0  0  0  0  0  0
    0.2876  -51.0703  -18.8428 C   0  0  0  0  0  0  0  0  0  0  0  0
    0.6464  -50.6349  -20.0855 C   0  0  0  0  0  0  0  0  0  0  0  0
    0.4217  -51.4437  -21.1878 C   0  0  0  0  0  0  0  0  0  0  0  0
   -0.2763  -53.9269  -24.5008 C   0  0  0  0  0  0  0  0  0  0  0  0
    0.6624  -53.7737  -25.6464 C   0  0  0  0  0  0  0  0  0  0  0  0
    1.6572  -52.6556  -25.5049 C   0  0  0  0  0  0  0  0  0  0  0  0
    0.9386  -51.4379  -24.9178 C   0  0  0  0  0  0  0  0  0  0  0  0
  1  2  1  0  0  0
  2 27  1  0  0  0
 27 28  2  0  0  0
 27 29  1  0  0  0
 29 31  1  0  0  0
 31 32  1  0  0  0
 32 33  1  0  0  0
 33 34  1  0  0  0
 34 35  1  0  0  0
 35 36  1  0  0  0
 36 37  1  0  0  0
 37 39  1  0  0  0
 39 40  2  0  0  0
 40 41  1  0  0  0
 41 42  2  0  0  0
 42 43  1  0  0  0
 43 44  2  0  0  0
 44 45  1  0  0  0
 45 46  2  0  0  0
 46 47  1  0  0  0
 47 48  2  0  0  0
 41 49  1  0  0  0
 49 50  1  0  0  0
 50 51  1  0  0  0
 51 52  1  0  0  0
  2  3  1  0  0  0
  3  4  2  0  0  0
  4  5  1  0  0  0
  5  6  2  0  0  0
  6 10  1  0  0  0
 10 11  2  0  0  0
 11 12  1  0  0  0
 12 13  2  0  0  0
 13 16  1  0  0  0
 16 17  1  0  0  0
 17 18  1  0  0  0
 18 19  1  0  0  0
 19 20  1  0  0  0
 20 21  1  0  0  0
 21 22  1  0  0  0
 22 23  1  0  0  0
 23 24  1  0  0  0
 24 25  2  0  0  0
 24 26  1  0  0  0
 13 14  1  0  0  0
 14 15  2  0  0  0
  6  7  1  0  0  0
  7  8  1  0  0  0
  7  9  2  0  0  0
 48 39  1  0  0  0
  9  3  1  0  0  0
 52 40  1  0  0  0
 15 10  1  0  0  0
 48 43  1  0  0  0
 29 30  1  0  0  0
 37 38  1  0  0  0
M  CHG 1  24   1
M  CHG 1  26  -1
M  END
> <minimizedAffinity>
-6.77140

> <CNNscore>
0.1726290733

> <CNNaffinity>
7.7613439560

> <CNN_VS>
1.3398336172

> <CNNaffinity_variance>
0.4590998590

$$$$
[H]c1c([H])c(-c2c([H])c([H])c(C([H])(C(=O)N([H])C([H])([H])C([H])([H])C([H])([H])C([H])([H])C([H])([H])C([H])([H])N([H])c3c4c(nc5c([H])c([H])c([H])c([H])c35)C([H])([H])C([H])([H])C([H])([H])C4([H])[H])C([H])([H])[H])c([H])c2F)c([H])c([H])c1OC([H])([H])C([H])([H])C([H])([H])C([H])([H])C([H])([H])C([H])([H])O[N+](=O)[O-]


 52 56  0  0  0  0  0  0  0  0999 V2000
    4.3909  -45.7906  -21.9049 C   0  0  0  0  0  0  0  0  0  0  0  0
    3.6996  -46.9894  -22.5473 C   0  0  0  0  0  0  0  0  0  0  0  0
    3.0154  -47.7282  -21.4684 C   0  0  0  0  0  0  0  0  0  0  0  0
    1.7034  -48.1036  -21.6370 C   0  0  0  0  0  0  0  0  0  0  0  0
    1.0052  -48.7883  -20.6411 C   0  0  0  0  0  0  0  0  0  0  0  0
    1.6384  -49.0910  -19.4766 C   0  0  0  0  0  0  0  0  0  0  0  0
    2.9486  -48.7252  -19.2877 C   0  0  0  0  0  0  0  0  0  0  0  0
    3.5921  -49.0134  -18.1314 F   0  0  0  0  0  0  0  0  0  0  0  0
    3.6424  -48.0378  -20.2929 C   0  0  0  0  0  0  0  0  0  0  0  0
    0.9390  -49.8072  -18.4260 C   0  0  0  0  0  0  0  0  0  0  0  0
    0.4159  -51.0653  -18.6240 C   0  0  0  0  0  0  0  0  0  0  0  0
   -0.2482  -51.7360  -17.5919 C   0  0  0  0  0  0  0  0  0  0  0  0
   -0.4169  -51.1911  -16.3421 C   0  0  0  0  0  0  0  0  0  0  0  0
    0.1250  -49.9030  -16.1555 C   0  0  0  0  0  0  0  0  0  0  0  0
    0.7711  -49.2614  -17.1737 C   0  0  0  0  0  0  0  0  0  0  0  0
   -1.0576  -51.7778  -15.2806 O   0  0  0  0  0  0  0  0  0  0  0  0
   -2.2757  -51.4040  -14.7196 C   0  0  0  0  0  0  0  0  0  0  0  0
   -3.2135  -50.9234  -15.7803 C   0  0  0  0  0  0  0  0  0  0  0  0
   -4.2007  -51.9954  -16.1370 C   0  0  0  0  0  0  0  0  0  0  0  0
   -4.2400  -53.0470  -15.0822 C   0  0  0  0  0  0  0  0  0  0  0  0
   -5.6019  -53.2159  -14.4587 C   0  0  0  0  0  0  0  0  0  0  0  0
   -5.6540  -54.5116  -13.7025 C   0  0  0  0  0  0  0  0  0  0  0  0
   -6.9985  -54.6986  -13.2261 O   0  0  0  0  0  0  0  0  0  0  0  0
   -7.9611  -54.8796  -14.1896 N   0  0  0  0  0  0  0  0  0  0  0  0
   -8.9157  -54.0938  -14.3360 O   0  0  0  0  0  0  0  0  0  0  0  0
   -7.8109  -55.9926  -14.9956 O   0  0  0  0  0  0  0  0  0  0  0  0
    4.6000  -47.7808  -23.3831 C   0  0  0  0  0  0  0  0  0  0  0  0
    4.4359  -47.8148  -24.6536 O   0  0  0  0  0  0  0  0  0  0  0  0
    5.6850  -48.5454  -22.8967 N   0  0  0  0  0  0  0  0  0  0  0  0
    5.8581  -48.5479  -21.8706 H   0  0  0  0  0  0  0  0  0  0  0  0
    6.5649  -49.3157  -23.7327 C   0  0  0  0  0  0  0  0  0  0  0  0
    6.2986  -50.7988  -23.6391 C   0  0  0  0  0  0  0  0  0  0  0  0
    5.3117  -51.2124  -24.7128 C   0  0  0  0  0  0  0  0  0  0  0  0
    4.5586  -52.4298  -24.1731 C   0  0  0  0  0  0  0  0  0  0  0  0
    3.8127  -52.0976  -22.9376 C   0  0  0  0  0  0  0  0  0  0  0  0
    2.7842  -51.0559  -23.0667 C   0  0  0  0  0  0  0  0  0  0  0  0
    1.6952  -51.2777  -23.9194 N   0  0  0  0  0  0  0  0  0  0  0  0
    1.3276  -50.3975  -24.4439 H   0  0  0  0  0  0  0  0  0  0  0  0
    0.9675  -52.4253  -24.2399 C   0  0  0  0  0  0  0  0  0  0  0  0
    0.2537  -53.0782  -23.2547 C   0  0  0  0  0  0  0  0  0  0  0  0
   -0.5006  -54.1807  -23.5816 C   0  0  0  0  0  0  0  0  0  0  0  0
   -0.5312  -54.6097  -24.8756 N   0  0  0  0  0  0  0  0  0  0  0  0
    0.1465  -54.0038  -25.8618 C   0  0  0  0  0  0  0  0  0  0  0  0
    0.0964  -54.4535  -27.1594 C   0  0  0  0  0  0  0  0  0  0  0  0
    0.7890  -53.8236  -28.1542 C   0  0  0  0  0  0  0  0  0  0  0  0
    1.5454  -52.7180  -27.8251 C   0  0  0  0  0  0  0  0  0  0  0  0
    1.6113  -52.2523  -26.5440 C   0  0  0  0  0  0  0  0  0  0  0  0
    0.9055  -52.8978  -25.5416 C   0  0  0  0  0  0  0  0  0  0  0  0
   -1.2501  -54.8833  -22.5348 C   0  0  0  0  0  0  0  0  0  0  0  0
   -1.7031  -54.0468  -21.3894 C   0  0  0  0  0  0  0  0  0  0  0  0
   -1.2127  -52.6259  -21.4097 C   0  0  0  0  0  0  0  0  0  0  0  0
    0.2559  -52.6255  -21.8424 C   0  0  0  0  0  0  0  0  0  0  0  0
  1  2  1  0  0  0
  2 27  1  0  0  0
 27 28  2  0  0  0
 27 29  1  0  0  0
 29 31  1  0  0  0
 31 32  1  0  0  0
 32 33  1  0  0  0
 33 34  1  0  0  0
 34 35  1  0  0  0
 35 36  1  0  0  0
 36 37  1  0  0  0
 37 39  1  0  0  0
 39 40  2  0  0  0
 40 41  1  0  0  0
 41 42  2  0  0  0
 42 43  1  0  0  0
 43 44  2  0  0  0
 44 45  1  0  0  0
 45 46  2  0  0  0
 46 47  1  0  0  0
 47 48  2  0  0  0
 41 49  1  0  0  0
 49 50  1  0  0  0
 50 51  1  0  0  0
 51 52  1  0  0  0
  2  3  1  0  0  0
  3  4  2  0  0  0
  4  5  1  0  0  0
  5  6  2  0  0  0
  6 10  1  0  0  0
 10 11  2  0  0  0
 11 12  1  0  0  0
 12 13  2  0  0  0
 13 16  1  0  0  0
 16 17  1  0  0  0
 17 18  1  0  0  0
 18 19  1  0  0  0
 19 20  1  0  0  0
 20 21  1  0  0  0
 21 22  1  0  0  0
 22 23  1  0  0  0
 23 24  1  0  0  0
 24 25  2  0  0  0
 24 26  1  0  0  0
 13 14  1  0  0  0
 14 15  2  0  0  0
  6  7  1  0  0  0
  7  8  1  0  0  0
  7  9  2  0  0  0
 48 39  1  0  0  0
  9  3  1  0  0  0
 52 40  1  0  0  0
 15 10  1  0  0  0
 48 43  1  0  0  0
 29 30  1  0  0  0
 37 38  1  0  0  0
M  CHG 1  24   1
M  CHG 1  26  -1
M  END
> <minimizedAffinity>
-7.52948

> <CNNscore>
0.1647054851

> <CNNaffinity>
7.4219803810

> <CNN_VS>
1.2224408388

> <CNNaffinity_variance>
0.9257780910

$$$$
[H]OC(=O)[C@@]([H])(N([H])[H])C([H])([H])OP(=O)(O[H])O[C@]1([H])C([H])([H])C([H])([H])C([H])([H])O[C@]1([H])C([H])([H])OC(=O)C([H])([H])C([H])([H])c1c([H])c([H])c([H])c([H])c1OC([H])([H])c1c([H])c([H])c([H])c(Oc2c([H])c([H])c(C([H])([H])[H])c([H])c2[H])c1[H]


 49 52  0  0  0  0  0  0  0  0999 V2000
    3.1528  -50.9335  -26.7018 C   0  0  0  0  0  0  0  0  0  0  0  0
    3.3345  -51.0073  -27.9282 O   0  0  0  0  0  0  0  0  0  0  0  0
    3.7868  -49.8684  -26.0187 O   0  0  0  0  0  0  0  0  0  0  0  0
    4.3066  -48.7542  -26.5977 C   0  0  0  0  0  0  0  0  0  0  0  0
    3.8268  -47.4030  -26.1612 C   0  0  0  0  0  0  0  0  0  0  0  0
    4.7841  -46.6528  -25.5311 O   0  0  0  0  0  0  0  0  0  0  0  0
    4.7345  -45.2970  -25.7393 C   0  0  0  0  0  0  0  0  0  0  0  0
    3.3663  -44.7098  -25.8808 C   0  0  0  0  0  0  0  0  0  0  0  0
    2.4380  -45.5006  -26.7325 C   0  0  0  0  0  0  0  0  0  0  0  0
    3.2067  -46.6561  -27.3491 C   0  0  0  0  0  0  0  0  0  0  0  0
    4.1071  -46.2560  -28.2910 O   0  0  0  0  0  0  0  0  0  0  0  0
    3.5853  -46.3064  -29.8740 P   0  0  0  0  0  0  0  0  0  0  0  0
    2.1858  -45.8330  -30.0876 O   0  0  0  0  0  0  0  0  0  0  0  0
    4.5768  -45.3435  -30.8859 O   0  0  0  0  0  0  0  0  0  0  0  0
    5.3127  -45.8810  -31.2166 H   0  0  0  0  0  0  0  0  0  0  0  0
    3.7851  -47.9087  -30.4216 O   0  0  0  0  0  0  0  0  0  0  0  0
    4.6642  -47.9899  -31.4982 C   0  0  0  0  0  0  0  0  0  0  0  0
    5.7276  -49.0002  -31.0963 C   0  0  0  0  0  0  0  0  0  0  0  0
    5.1068  -50.0027  -30.2774 N   0  0  0  0  0  0  0  0  0  0  0  0
    4.6304  -50.7296  -30.8155 H   0  0  0  0  0  0  0  0  0  0  0  0
    5.6747  -50.3201  -29.4813 H   0  0  0  0  0  0  0  0  0  0  0  0
    6.9201  -48.3909  -30.5004 C   0  0  0  0  0  0  0  0  0  0  0  0
    7.1014  -47.1543  -30.5272 O   0  0  0  0  0  0  0  0  0  0  0  0
    7.8755  -49.1823  -29.8922 O   0  0  0  0  0  0  0  0  0  0  0  0
    7.7742  -49.7075  -29.0563 H   0  0  0  0  0  0  0  0  0  0  0  0
    2.3416  -51.8719  -25.9336 C   0  0  0  0  0  0  0  0  0  0  0  0
    1.8380  -53.0992  -26.5724 C   0  0  0  0  0  0  0  0  0  0  0  0
   -0.6830  -52.8948  -26.5949 C   0  0  0  0  0  0  0  0  0  0  0  0
   -1.8189  -52.6746  -27.3255 C   0  0  0  0  0  0  0  0  0  0  0  0
   -1.8110  -52.5601  -28.7218 C   0  0  0  0  0  0  0  0  0  0  0  0
   -0.6009  -52.6770  -29.3617 C   0  0  0  0  0  0  0  0  0  0  0  0
    0.5507  -52.8945  -28.6541 C   0  0  0  0  0  0  0  0  0  0  0  0
    0.5293  -53.0037  -27.2754 C   0  0  0  0  0  0  0  0  0  0  0  0
   -0.7192  -53.0168  -25.2495 O   0  0  0  0  0  0  0  0  0  0  0  0
   -0.7545  -54.0866  -24.3977 C   0  0  0  0  0  0  0  0  0  0  0  0
    0.7491  -52.6416  -21.2328 C   0  0  0  0  0  0  0  0  0  0  0  0
   -0.0246  -53.2315  -20.2299 C   0  0  0  0  0  0  0  0  0  0  0  0
   -1.0128  -54.0890  -20.6475 C   0  0  0  0  0  0  0  0  0  0  0  0
   -1.2363  -54.3579  -21.9771 C   0  0  0  0  0  0  0  0  0  0  0  0
   -0.4555  -53.7589  -22.9535 C   0  0  0  0  0  0  0  0  0  0  0  0
    0.5321  -52.9042  -22.5628 C   0  0  0  0  0  0  0  0  0  0  0  0
    1.7449  -51.7830  -20.7975 O   0  0  0  0  0  0  0  0  0  0  0  0
    2.6250  -46.5994  -22.7458 C   0  0  0  0  0  0  0  0  0  0  0  0
    2.4014  -47.9664  -22.2352 C   0  0  0  0  0  0  0  0  0  0  0  0
    3.1878  -49.0146  -22.6941 C   0  0  0  0  0  0  0  0  0  0  0  0
    2.9472  -50.2913  -22.1926 C   0  0  0  0  0  0  0  0  0  0  0  0
    1.9633  -50.5319  -21.2692 C   0  0  0  0  0  0  0  0  0  0  0  0
    1.1874  -49.4614  -20.8245 C   0  0  0  0  0  0  0  0  0  0  0  0
    1.3965  -48.1879  -21.2965 C   0  0  0  0  0  0  0  0  0  0  0  0
 43 44  1  0  0  0
 44 45  2  0  0  0
 45 46  1  0  0  0
 46 47  2  0  0  0
 47 42  1  0  0  0
 42 36  1  0  0  0
 36 37  2  0  0  0
 37 38  1  0  0  0
 38 39  2  0  0  0
 39 40  1  0  0  0
 40 35  1  0  0  0
 35 34  1  0  0  0
 34 28  1  0  0  0
 28 29  2  0  0  0
 29 30  1  0  0  0
 30 31  2  0  0  0
 31 32  1  0  0  0
 32 33  2  0  0  0
 33 27  1  0  0  0
 27 26  1  0  0  0
 26  1  1  0  0  0
  1  2  2  0  0  0
  1  3  1  0  0  0
  3  4  1  0  0  0
  4  5  1  0  0  0
  5  6  1  0  0  0
  6  7  1  0  0  0
  7  8  1  0  0  0
  8  9  1  0  0  0
  9 10  1  0  0  0
 10 11  1  0  0  0
 11 12  1  0  0  0
 12 13  2  0  0  0
 12 14  1  0  0  0
 12 16  1  0  0  0
 16 17  1  0  0  0
 17 18  1  0  0  0
 18 19  1  0  0  0
 18 22  1  0  0  0
 22 23  2  0  0  0
 22 24  1  0  0  0
 40 41  2  0  0  0
 47 48  1  0  0  0
 48 49  2  0  0  0
 49 44  1  0  0  0
 41 36  1  0  0  0
 33 28  1  0  0  0
 10  5  1  0  0  0
 14 15  1  0  0  0
 19 20  1  0  0  0
 19 21  1  0  0  0
 24 25  1  0  0  0
M  END
> <minimizedAffinity>
-8.13904

> <CNNscore>
0.6890301704

> <CNNaffinity>
7.2623963356

> <CNN_VS>
5.0040102005

> <CNNaffinity_variance>
0.1877618432

$$$$
[H]OC(=O)[C@@]([H])(N([H])[H])C([H])([H])OP(=O)(O[H])O[C@]1([H])C([H])([H])C([H])([H])C([H])([H])O[C@]1([H])C([H])([H])OC(=O)C([H])([H])C([H])([H])c1c([H])c([H])c([H])c([H])c1OC([H])([H])c1c([H])c([H])c([H])c(Oc2c([H])c([H])c(C([H])([H])[H])c([H])c2[H])c1[H]


 49 52  0  0  0  0  0  0  0  0999 V2000
    2.8994  -50.8768  -26.5540 C   0  0  0  0  0  0  0  0  0  0  0  0
    3.2182  -50.8456  -27.7539 O   0  0  0  0  0  0  0  0  0  0  0  0
    3.0509  -49.6794  -25.8150 O   0  0  0  0  0  0  0  0  0  0  0  0
    3.9674  -48.7069  -26.0621 C   0  0  0  0  0  0  0  0  0  0  0  0
    3.5083  -47.3674  -26.5535 C   0  0  0  0  0  0  0  0  0  0  0  0
    4.1181  -46.3107  -25.9308 O   0  0  0  0  0  0  0  0  0  0  0  0
    4.3471  -45.1966  -26.6991 C   0  0  0  0  0  0  0  0  0  0  0  0
    3.3102  -44.8953  -27.7341 C   0  0  0  0  0  0  0  0  0  0  0  0
    2.8291  -46.0812  -28.4923 C   0  0  0  0  0  0  0  0  0  0  0  0
    3.6502  -47.2901  -28.0791 C   0  0  0  0  0  0  0  0  0  0  0  0
    4.9389  -47.2361  -28.5198 O   0  0  0  0  0  0  0  0  0  0  0  0
    5.2638  -48.0461  -29.9408 P   0  0  0  0  0  0  0  0  0  0  0  0
    6.6667  -47.9103  -30.4324 O   0  0  0  0  0  0  0  0  0  0  0  0
    4.9730  -49.7263  -29.7786 O   0  0  0  0  0  0  0  0  0  0  0  0
    4.0481  -49.9131  -30.0008 H   0  0  0  0  0  0  0  0  0  0  0  0
    4.1461  -47.4944  -31.1042 O   0  0  0  0  0  0  0  0  0  0  0  0
    4.6256  -47.6397  -32.4033 C   0  0  0  0  0  0  0  0  0  0  0  0
    3.4072  -47.9105  -33.2723 C   0  0  0  0  0  0  0  0  0  0  0  0
    3.8640  -48.3553  -34.5586 N   0  0  0  0  0  0  0  0  0  0  0  0
    4.0953  -49.3507  -34.5862 H   0  0  0  0  0  0  0  0  0  0  0  0
    3.3293  -47.9872  -35.3560 H   0  0  0  0  0  0  0  0  0  0  0  0
    2.4630  -46.7906  -33.3240 C   0  0  0  0  0  0  0  0  0  0  0  0
    2.5307  -45.9234  -34.2218 O   0  0  0  0  0  0  0  0  0  0  0  0
    1.4708  -46.6728  -32.3697 O   0  0  0  0  0  0  0  0  0  0  0  0
    0.6911  -47.2728  -32.2393 H   0  0  0  0  0  0  0  0  0  0  0  0
    2.3920  -52.0612  -25.8693 C   0  0  0  0  0  0  0  0  0  0  0  0
    1.9019  -53.2072  -26.6530 C   0  0  0  0  0  0  0  0  0  0  0  0
   -0.6074  -52.9000  -26.5694 C   0  0  0  0  0  0  0  0  0  0  0  0
   -1.7633  -52.6347  -27.2520 C   0  0  0  0  0  0  0  0  0  0  0  0
   -1.8101  -52.5230  -28.6477 C   0  0  0  0  0  0  0  0  0  0  0  0
   -0.6341  -52.6905  -29.3379 C   0  0  0  0  0  0  0  0  0  0  0  0
    0.5367  -52.9537  -28.6790 C   0  0  0  0  0  0  0  0  0  0  0  0
    0.5694  -53.0595  -27.3002 C   0  0  0  0  0  0  0  0  0  0  0  0
   -0.5913  -53.0180  -25.2233 O   0  0  0  0  0  0  0  0  0  0  0  0
   -0.7408  -54.0725  -24.3647 C   0  0  0  0  0  0  0  0  0  0  0  0
    0.7237  -52.6707  -21.1623 C   0  0  0  0  0  0  0  0  0  0  0  0
   -0.0908  -53.2388  -20.1794 C   0  0  0  0  0  0  0  0  0  0  0  0
   -1.0921  -54.0683  -20.6221 C   0  0  0  0  0  0  0  0  0  0  0  0
   -1.2900  -54.3306  -21.9571 C   0  0  0  0  0  0  0  0  0  0  0  0
   -0.4687  -53.7535  -22.9133 C   0  0  0  0  0  0  0  0  0  0  0  0
    0.5325  -52.9269  -22.4975 C   0  0  0  0  0  0  0  0  0  0  0  0
    1.7320  -51.8404  -20.7017 O   0  0  0  0  0  0  0  0  0  0  0  0
    2.8216  -46.6953  -22.6462 C   0  0  0  0  0  0  0  0  0  0  0  0
    2.5432  -48.0519  -22.1348 C   0  0  0  0  0  0  0  0  0  0  0  0
    3.4380  -49.0837  -22.3851 C   0  0  0  0  0  0  0  0  0  0  0  0
    3.1419  -50.3511  -21.8897 C   0  0  0  0  0  0  0  0  0  0  0  0
    2.0012  -50.5984  -21.1713 C   0  0  0  0  0  0  0  0  0  0  0  0
    1.1189  -49.5444  -20.9338 C   0  0  0  0  0  0  0  0  0  0  0  0
    1.3783  -48.2804  -21.4063 C   0  0  0  0  0  0  0  0  0  0  0  0
 43 44  1  0  0  0
 44 45  2  0  0  0
 45 46  1  0  0  0
 46 47  2  0  0  0
 47 42  1  0  0  0
 42 36  1  0  0  0
 36 37  2  0  0  0
 37 38  1  0  0  0
 38 39  2  0  0  0
 39 40  1  0  0  0
 40 35  1  0  0  0
 35 34  1  0  0  0
 34 28  1  0  0  0
 28 29  2  0  0  0
 29 30  1  0  0  0
 30 31  2  0  0  0
 31 32  1  0  0  0
 32 33  2  0  0  0
 33 27  1  0  0  0
 27 26  1  0  0  0
 26  1  1  0  0  0
  1  2  2  0  0  0
  1  3  1  0  0  0
  3  4  1  0  0  0
  4  5  1  0  0  0
  5  6  1  0  0  0
  6  7  1  0  0  0
  7  8  1  0  0  0
  8  9  1  0  0  0
  9 10  1  0  0  0
 10 11  1  0  0  0
 11 12  1  0  0  0
 12 13  2  0  0  0
 12 14  1  0  0  0
 12 16  1  0  0  0
 16 17  1  0  0  0
 17 18  1  0  0  0
 18 19  1  0  0  0
 18 22  1  0  0  0
 22 23  2  0  0  0
 22 24  1  0  0  0
 40 41  2  0  0  0
 47 48  1  0  0  0
 48 49  2  0  0  0
 49 44  1  0  0  0
 41 36  1  0  0  0
 33 28  1  0  0  0
 10  5  1  0  0  0
 14 15  1  0  0  0
 19 20  1  0  0  0
 19 21  1  0  0  0
 24 25  1  0  0  0
M  END
> <minimizedAffinity>
-8.48985

> <CNNscore>
0.5902986526

> <CNNaffinity>
7.0522279739

> <CNN_VS>
4.1629204750

> <CNNaffinity_variance>
0.2430431396

$$$$
[H]OC(=O)[C@@]([H])(N([H])[H])C([H])([H])OP(=O)(O[H])O[C@]1([H])C([H])([H])C([H])([H])C([H])([H])O[C@]1([H])C([H])([H])OC(=O)C([H])([H])C([H])([H])c1c([H])c([H])c([H])c([H])c1OC([H])([H])c1c([H])c([H])c([H])c(Oc2c([H])c([H])c(C([H])([H])[H])c([H])c2[H])c1[H]


 49 52  0  0  0  0  0  0  0  0999 V2000
   -0.8843  -54.3413  -22.2914 C   0  0  0  0  0  0  0  0  0  0  0  0
   -1.8476  -55.1038  -22.4732 O   0  0  0  0  0  0  0  0  0  0  0  0
   -0.1521  -53.9429  -23.4351 O   0  0  0  0  0  0  0  0  0  0  0  0
   -0.5669  -53.0462  -24.3682 C   0  0  0  0  0  0  0  0  0  0  0  0
   -0.5479  -53.4269  -25.8177 C   0  0  0  0  0  0  0  0  0  0  0  0
   -1.5719  -52.8824  -26.5465 O   0  0  0  0  0  0  0  0  0  0  0  0
   -1.2880  -52.5498  -27.8475 C   0  0  0  0  0  0  0  0  0  0  0  0
   -0.3284  -53.4525  -28.5555 C   0  0  0  0  0  0  0  0  0  0  0  0
    0.8543  -53.8547  -27.7479 C   0  0  0  0  0  0  0  0  0  0  0  0
    0.8219  -53.1037  -26.4283 C   0  0  0  0  0  0  0  0  0  0  0  0
    1.0734  -51.7712  -26.5662 O   0  0  0  0  0  0  0  0  0  0  0  0
    2.5617  -51.2452  -26.0285 P   0  0  0  0  0  0  0  0  0  0  0  0
    2.6098  -50.8727  -24.5837 O   0  0  0  0  0  0  0  0  0  0  0  0
    3.7635  -52.4446  -26.2547 O   0  0  0  0  0  0  0  0  0  0  0  0
    4.1566  -52.3405  -27.1347 H   0  0  0  0  0  0  0  0  0  0  0  0
    3.0235  -49.9364  -27.0189 O   0  0  0  0  0  0  0  0  0  0  0  0
    4.0664  -49.2000  -26.4634 C   0  0  0  0  0  0  0  0  0  0  0  0
    4.7381  -48.4825  -27.6240 C   0  0  0  0  0  0  0  0  0  0  0  0
    4.5470  -49.2702  -28.8089 N   0  0  0  0  0  0  0  0  0  0  0  0
    3.6385  -49.1225  -29.2534 H   0  0  0  0  0  0  0  0  0  0  0  0
    5.3619  -49.3105  -29.4347 H   0  0  0  0  0  0  0  0  0  0  0  0
    6.1339  -48.1207  -27.3611 C   0  0  0  0  0  0  0  0  0  0  0  0
    7.0318  -48.3371  -28.2036 O   0  0  0  0  0  0  0  0  0  0  0  0
    6.4853  -47.5281  -26.1635 O   0  0  0  0  0  0  0  0  0  0  0  0
    6.2321  -46.6223  -25.8467 H   0  0  0  0  0  0  0  0  0  0  0  0
   -0.4644  -53.8452  -20.9850 C   0  0  0  0  0  0  0  0  0  0  0  0
    0.3248  -52.6057  -20.8908 C   0  0  0  0  0  0  0  0  0  0  0  0
    0.6784  -50.5467  -19.4649 C   0  0  0  0  0  0  0  0  0  0  0  0
    0.4740  -49.9223  -18.2646 C   0  0  0  0  0  0  0  0  0  0  0  0
   -0.1104  -50.5658  -17.1659 C   0  0  0  0  0  0  0  0  0  0  0  0
   -0.4857  -51.8779  -17.3243 C   0  0  0  0  0  0  0  0  0  0  0  0
   -0.2951  -52.5250  -18.5156 C   0  0  0  0  0  0  0  0  0  0  0  0
    0.2814  -51.8773  -19.5933 C   0  0  0  0  0  0  0  0  0  0  0  0
    1.2583  -49.9083  -20.5053 O   0  0  0  0  0  0  0  0  0  0  0  0
    1.1140  -48.6613  -21.0487 C   0  0  0  0  0  0  0  0  0  0  0  0
    3.4227  -46.6236  -23.2584 C   0  0  0  0  0  0  0  0  0  0  0  0
    4.6036  -47.3702  -23.2373 C   0  0  0  0  0  0  0  0  0  0  0  0
    4.5824  -48.5233  -22.4916 C   0  0  0  0  0  0  0  0  0  0  0  0
    3.4654  -48.9285  -21.8000 C   0  0  0  0  0  0  0  0  0  0  0  0
    2.3059  -48.1694  -21.8360 C   0  0  0  0  0  0  0  0  0  0  0  0
    2.3031  -47.0207  -22.5702 C   0  0  0  0  0  0  0  0  0  0  0  0
    3.4566  -45.4659  -24.0181 O   0  0  0  0  0  0  0  0  0  0  0  0
    2.9166  -45.2469  -29.5948 C   0  0  0  0  0  0  0  0  0  0  0  0
    3.0644  -45.2980  -28.1269 C   0  0  0  0  0  0  0  0  0  0  0  0
    4.1924  -44.7565  -27.5250 C   0  0  0  0  0  0  0  0  0  0  0  0
    4.2998  -44.8247  -26.1382 C   0  0  0  0  0  0  0  0  0  0  0  0
    3.3295  -45.4081  -25.3656 C   0  0  0  0  0  0  0  0  0  0  0  0
    2.2062  -45.9444  -25.9952 C   0  0  0  0  0  0  0  0  0  0  0  0
    2.0657  -45.8948  -27.3612 C   0  0  0  0  0  0  0  0  0  0  0  0
 43 44  1  0  0  0
 44 45  2  0  0  0
 45 46  1  0  0  0
 46 47  2  0  0  0
 47 42  1  0  0  0
 42 36  1  0  0  0
 36 37  2  0  0  0
 37 38  1  0  0  0
 38 39  2  0  0  0
 39 40  1  0  0  0
 40 35  1  0  0  0
 35 34  1  0  0  0
 34 28  1  0  0  0
 28 29  2  0  0  0
 29 30  1  0  0  0
 30 31  2  0  0  0
 31 32  1  0  0  0
 32 33  2  0  0  0
 33 27  1  0  0  0
 27 26  1  0  0  0
 26  1  1  0  0  0
  1  2  2  0  0  0
  1  3  1  0  0  0
  3  4  1  0  0  0
  4  5  1  0  0  0
  5  6  1  0  0  0
  6  7  1  0  0  0
  7  8  1  0  0  0
  8  9  1  0  0  0
  9 10  1  0  0  0
 10 11  1  0  0  0
 11 12  1  0  0  0
 12 13  2  0  0  0
 12 14  1  0  0  0
 12 16  1  0  0  0
 16 17  1  0  0  0
 17 18  1  0  0  0
 18 19  1  0  0  0
 18 22  1  0  0  0
 22 23  2  0  0  0
 22 24  1  0  0  0
 40 41  2  0  0  0
 47 48  1  0  0  0
 48 49  2  0  0  0
 49 44  1  0  0  0
 41 36  1  0  0  0
 33 28  1  0  0  0
 10  5  1  0  0  0
 14 15  1  0  0  0
 19 20  1  0  0  0
 19 21  1  0  0  0
 24 25  1  0  0  0
M  END
> <minimizedAffinity>
-7.55181

> <CNNscore>
0.5118817687

> <CNNaffinity>
6.7450690269

> <CNN_VS>
3.4526779652

> <CNNaffinity_variance>
0.1334116012

$$$$
[H]OC(=O)[C@@]([H])(N([H])[H])C([H])([H])OP(=O)(O[H])O[C@]1([H])C([H])([H])C([H])([H])C([H])([H])O[C@]1([H])C([H])([H])OC(=O)C([H])([H])C([H])([H])c1c([H])c([H])c([H])c([H])c1OC([H])([H])c1c([H])c([H])c([H])c(Oc2c([H])c([H])c(C([H])([H])[H])c([H])c2[H])c1[H]


 49 52  0  0  0  0  0  0  0  0999 V2000
    3.0939  -51.6120  -26.9424 C   0  0  0  0  0  0  0  0  0  0  0  0
    3.0759  -51.7741  -28.1736 O   0  0  0  0  0  0  0  0  0  0  0  0
    2.7704  -50.3227  -26.4568 O   0  0  0  0  0  0  0  0  0  0  0  0
    3.5631  -49.2222  -26.5427 C   0  0  0  0  0  0  0  0  0  0  0  0
    3.0473  -47.9010  -26.0580 C   0  0  0  0  0  0  0  0  0  0  0  0
    3.4457  -47.5840  -24.7864 O   0  0  0  0  0  0  0  0  0  0  0  0
    3.6709  -46.2548  -24.5289 C   0  0  0  0  0  0  0  0  0  0  0  0
    2.7744  -45.2927  -25.2415 C   0  0  0  0  0  0  0  0  0  0  0  0
    2.5361  -45.6134  -26.6743 C   0  0  0  0  0  0  0  0  0  0  0  0
    3.4062  -46.7966  -27.0605 C   0  0  0  0  0  0  0  0  0  0  0  0
    4.7337  -46.4908  -27.1056 O   0  0  0  0  0  0  0  0  0  0  0  0
    5.3464  -46.0980  -28.6059 P   0  0  0  0  0  0  0  0  0  0  0  0
    4.9656  -44.7428  -29.1028 O   0  0  0  0  0  0  0  0  0  0  0  0
    7.0586  -46.1465  -28.6100 O   0  0  0  0  0  0  0  0  0  0  0  0
    7.3520  -47.0425  -28.8358 H   0  0  0  0  0  0  0  0  0  0  0  0
    4.8476  -47.3154  -29.6904 O   0  0  0  0  0  0  0  0  0  0  0  0
    5.5158  -48.5176  -29.4738 C   0  0  0  0  0  0  0  0  0  0  0  0
    5.4419  -49.2812  -30.7869 C   0  0  0  0  0  0  0  0  0  0  0  0
    5.0508  -50.6321  -30.4985 N   0  0  0  0  0  0  0  0  0  0  0  0
    4.0417  -50.7476  -30.3834 H   0  0  0  0  0  0  0  0  0  0  0  0
    5.5329  -51.3482  -31.0571 H   0  0  0  0  0  0  0  0  0  0  0  0
    6.6556  -49.1675  -31.6007 C   0  0  0  0  0  0  0  0  0  0  0  0
    6.6102  -48.7677  -32.7843 O   0  0  0  0  0  0  0  0  0  0  0  0
    7.8848  -49.5049  -31.0676 O   0  0  0  0  0  0  0  0  0  0  0  0
    8.3733  -49.0333  -30.3437 H   0  0  0  0  0  0  0  0  0  0  0  0
    3.4316  -52.6564  -25.9811 C   0  0  0  0  0  0  0  0  0  0  0  0
    3.2780  -52.4025  -24.5389 C   0  0  0  0  0  0  0  0  0  0  0  0
    3.9171  -50.4863  -23.0166 C   0  0  0  0  0  0  0  0  0  0  0  0
    4.9138  -49.7984  -22.3795 C   0  0  0  0  0  0  0  0  0  0  0  0
    6.2727  -50.0682  -22.5875 C   0  0  0  0  0  0  0  0  0  0  0  0
    6.5933  -51.0694  -23.4721 C   0  0  0  0  0  0  0  0  0  0  0  0
    5.6153  -51.7749  -24.1202 C   0  0  0  0  0  0  0  0  0  0  0  0
    4.2770  -51.4997  -23.9043 C   0  0  0  0  0  0  0  0  0  0  0  0
    2.6133  -50.1967  -22.8102 O   0  0  0  0  0  0  0  0  0  0  0  0
    1.7643  -50.3618  -21.7503 C   0  0  0  0  0  0  0  0  0  0  0  0
   -0.1609  -53.4945  -22.6695 C   0  0  0  0  0  0  0  0  0  0  0  0
   -0.1903  -54.2000  -21.4638 C   0  0  0  0  0  0  0  0  0  0  0  0
    0.4285  -53.6028  -20.3930 C   0  0  0  0  0  0  0  0  0  0  0  0
    1.0461  -52.3785  -20.4926 C   0  0  0  0  0  0  0  0  0  0  0  0
    1.0626  -51.6988  -21.7007 C   0  0  0  0  0  0  0  0  0  0  0  0
    0.4542  -52.2719  -22.7777 C   0  0  0  0  0  0  0  0  0  0  0  0
   -0.7927  -54.1059  -23.7397 O   0  0  0  0  0  0  0  0  0  0  0  0
   -0.0632  -52.7733  -29.1371 C   0  0  0  0  0  0  0  0  0  0  0  0
   -0.2485  -53.1297  -27.7166 C   0  0  0  0  0  0  0  0  0  0  0  0
    0.2554  -54.3292  -27.2318 C   0  0  0  0  0  0  0  0  0  0  0  0
    0.0598  -54.6341  -25.8872 C   0  0  0  0  0  0  0  0  0  0  0  0
   -0.6114  -53.7873  -25.0439 C   0  0  0  0  0  0  0  0  0  0  0  0
   -1.1076  -52.5884  -25.5561 C   0  0  0  0  0  0  0  0  0  0  0  0
   -0.9330  -52.2538  -26.8774 C   0  0  0  0  0  0  0  0  0  0  0  0
 43 44  1  0  0  0
 44 45  2  0  0  0
 45 46  1  0  0  0
 46 47  2  0  0  0
 47 42  1  0  0  0
 42 36  1  0  0  0
 36 37  2  0  0  0
 37 38  1  0  0  0
 38 39  2  0  0  0
 39 40  1  0  0  0
 40 35  1  0  0  0
 35 34  1  0  0  0
 34 28  1  0  0  0
 28 29  2  0  0  0
 29 30  1  0  0  0
 30 31  2  0  0  0
 31 32  1  0  0  0
 32 33  2  0  0  0
 33 27  1  0  0  0
 27 26  1  0  0  0
 26  1  1  0  0  0
  1  2  2  0  0  0
  1  3  1  0  0  0
  3  4  1  0  0  0
  4  5  1  0  0  0
  5  6  1  0  0  0
  6  7  1  0  0  0
  7  8  1  0  0  0
  8  9  1  0  0  0
  9 10  1  0  0  0
 10 11  1  0  0  0
 11 12  1  0  0  0
 12 13  2  0  0  0
 12 14  1  0  0  0
 12 16  1  0  0  0
 16 17  1  0  0  0
 17 18  1  0  0  0
 18 19  1  0  0  0
 18 22  1  0  0  0
 22 23  2  0  0  0
 22 24  1  0  0  0
 40 41  2  0  0  0
 47 48  1  0  0  0
 48 49  2  0  0  0
 49 44  1  0  0  0
 41 36  1  0  0  0
 33 28  1  0  0  0
 10  5  1  0  0  0
 14 15  1  0  0  0
 19 20  1  0  0  0
 19 21  1  0  0  0
 24 25  1  0  0  0
M  END
> <minimizedAffinity>
-8.04611

> <CNNscore>
0.4867770672

> <CNNaffinity>
6.9795732498

> <CNN_VS>
3.3974962234

> <CNNaffinity_variance>
0.2674046159

$$$$
[H]OC(=O)[C@@]([H])(N([H])[H])C([H])([H])OP(=O)(O[H])O[C@]1([H])C([H])([H])C([H])([H])C([H])([H])O[C@]1([H])C([H])([H])OC(=O)C([H])([H])C([H])([H])c1c([H])c([H])c([H])c([H])c1OC([H])([H])c1c([H])c([H])c([H])c(Oc2c([H])c([H])c(C([H])([H])[H])c([H])c2[H])c1[H]


 49 52  0  0  0  0  0  0  0  0999 V2000
   -0.8193  -54.3067  -22.5702 C   0  0  0  0  0  0  0  0  0  0  0  0
   -1.6571  -55.0951  -22.1022 O   0  0  0  0  0  0  0  0  0  0  0  0
   -0.5407  -54.4081  -23.9540 O   0  0  0  0  0  0  0  0  0  0  0  0
   -0.2544  -53.3695  -24.7824 C   0  0  0  0  0  0  0  0  0  0  0  0
   -0.2695  -53.5825  -26.2659 C   0  0  0  0  0  0  0  0  0  0  0  0
   -1.3582  -53.0362  -26.8925 O   0  0  0  0  0  0  0  0  0  0  0  0
   -1.1524  -52.5396  -28.1554 C   0  0  0  0  0  0  0  0  0  0  0  0
   -0.1629  -53.2840  -28.9943 C   0  0  0  0  0  0  0  0  0  0  0  0
    1.0773  -53.6865  -28.2783 C   0  0  0  0  0  0  0  0  0  0  0  0
    1.0481  -53.0929  -26.8808 C   0  0  0  0  0  0  0  0  0  0  0  0
    1.2009  -51.7386  -26.8728 O   0  0  0  0  0  0  0  0  0  0  0  0
    2.6004  -51.1614  -26.1735 P   0  0  0  0  0  0  0  0  0  0  0  0
    2.4388  -50.6463  -24.7817 O   0  0  0  0  0  0  0  0  0  0  0  0
    3.8044  -52.3774  -26.0979 O   0  0  0  0  0  0  0  0  0  0  0  0
    4.3255  -52.3619  -26.9152 H   0  0  0  0  0  0  0  0  0  0  0  0
    3.2238  -49.9582  -27.2083 O   0  0  0  0  0  0  0  0  0  0  0  0
    4.1695  -49.1578  -26.5730 C   0  0  0  0  0  0  0  0  0  0  0  0
    4.2175  -47.8586  -27.3620 C   0  0  0  0  0  0  0  0  0  0  0  0
    2.9990  -47.1400  -27.1170 N   0  0  0  0  0  0  0  0  0  0  0  0
    3.0113  -46.6032  -26.2472 H   0  0  0  0  0  0  0  0  0  0  0  0
    2.6049  -46.6679  -27.9410 H   0  0  0  0  0  0  0  0  0  0  0  0
    4.5300  -48.0457  -28.7818 C   0  0  0  0  0  0  0  0  0  0  0  0
    4.4121  -47.1103  -29.6027 O   0  0  0  0  0  0  0  0  0  0  0  0
    4.9645  -49.2737  -29.2424 O   0  0  0  0  0  0  0  0  0  0  0  0
    5.8259  -49.7206  -29.0344 H   0  0  0  0  0  0  0  0  0  0  0  0
   -0.1098  -53.3012  -21.7864 C   0  0  0  0  0  0  0  0  0  0  0  0
   -0.7985  -52.0623  -21.3879 C   0  0  0  0  0  0  0  0  0  0  0  0
    0.0039  -51.3644  -19.0929 C   0  0  0  0  0  0  0  0  0  0  0  0
    0.8144  -50.5504  -18.3493 C   0  0  0  0  0  0  0  0  0  0  0  0
    1.5691  -49.5135  -18.9133 C   0  0  0  0  0  0  0  0  0  0  0  0
    1.4755  -49.3258  -20.2711 C   0  0  0  0  0  0  0  0  0  0  0  0
    0.6743  -50.1282  -21.0383 C   0  0  0  0  0  0  0  0  0  0  0  0
   -0.0643  -51.1498  -20.4691 C   0  0  0  0  0  0  0  0  0  0  0  0
   -0.7261  -52.3484  -18.5228 O   0  0  0  0  0  0  0  0  0  0  0  0
   -0.9097  -52.7630  -17.2321 C   0  0  0  0  0  0  0  0  0  0  0  0
   -3.2016  -50.6553  -15.0712 C   0  0  0  0  0  0  0  0  0  0  0  0
   -4.4623  -51.1880  -15.3526 C   0  0  0  0  0  0  0  0  0  0  0  0
   -4.4980  -52.2295  -16.2473 C   0  0  0  0  0  0  0  0  0  0  0  0
   -3.3610  -52.7268  -16.8390 C   0  0  0  0  0  0  0  0  0  0  0  0
   -2.1217  -52.1801  -16.5439 C   0  0  0  0  0  0  0  0  0  0  0  0
   -2.0615  -51.1456  -15.6580 C   0  0  0  0  0  0  0  0  0  0  0  0
   -3.1797  -49.6090  -14.1639 O   0  0  0  0  0  0  0  0  0  0  0  0
    0.5276  -45.4025  -14.1790 C   0  0  0  0  0  0  0  0  0  0  0  0
   -0.4528  -46.5061  -14.1686 C   0  0  0  0  0  0  0  0  0  0  0  0
   -1.2308  -46.7309  -13.0407 C   0  0  0  0  0  0  0  0  0  0  0  0
   -2.1435  -47.7824  -13.0653 C   0  0  0  0  0  0  0  0  0  0  0  0
   -2.2874  -48.5897  -14.1636 C   0  0  0  0  0  0  0  0  0  0  0  0
   -1.4938  -48.3423  -15.2837 C   0  0  0  0  0  0  0  0  0  0  0  0
   -0.5830  -47.3134  -15.2961 C   0  0  0  0  0  0  0  0  0  0  0  0
 43 44  1  0  0  0
 44 45  2  0  0  0
 45 46  1  0  0  0
 46 47  2  0  0  0
 47 42  1  0  0  0
 42 36  1  0  0  0
 36 37  2  0  0  0
 37 38  1  0  0  0
 38 39  2  0  0  0
 39 40  1  0  0  0
 40 35  1  0  0  0
 35 34  1  0  0  0
 34 28  1  0  0  0
 28 29  2  0  0  0
 29 30  1  0  0  0
 30 31  2  0  0  0
 31 32  1  0  0  0
 32 33  2  0  0  0
 33 27  1  0  0  0
 27 26  1  0  0  0
 26  1  1  0  0  0
  1  2  2  0  0  0
  1  3  1  0  0  0
  3  4  1  0  0  0
  4  5  1  0  0  0
  5  6  1  0  0  0
  6  7  1  0  0  0
  7  8  1  0  0  0
  8  9  1  0  0  0
  9 10  1  0  0  0
 10 11  1  0  0  0
 11 12  1  0  0  0
 12 13  2  0  0  0
 12 14  1  0  0  0
 12 16  1  0  0  0
 16 17  1  0  0  0
 17 18  1  0  0  0
 18 19  1  0  0  0
 18 22  1  0  0  0
 22 23  2  0  0  0
 22 24  1  0  0  0
 40 41  2  0  0  0
 47 48  1  0  0  0
 48 49  2  0  0  0
 49 44  1  0  0  0
 41 36  1  0  0  0
 33 28  1  0  0  0
 10  5  1  0  0  0
 14 15  1  0  0  0
 19 20  1  0  0  0
 19 21  1  0  0  0
 24 25  1  0  0  0
M  END
> <minimizedAffinity>
-7.97558

> <CNNscore>
0.3743571043

> <CNNaffinity>
6.4278130531

> <CNN_VS>
2.4062974453

> <CNNaffinity_variance>
0.0764433891

$$$$
[H]OC(=O)[C@@]([H])(N([H])[H])C([H])([H])OP(=O)(O[H])O[C@]1([H])C([H])([H])C([H])([H])C([H])([H])O[C@]1([H])C([H])([H])OC(=O)C([H])([H])C([H])([H])c1c([H])c([H])c([H])c([H])c1OC([H])([H])c1c([H])c([H])c([H])c(Oc2c([H])c([H])c(C([H])([H])[H])c([H])c2[H])c1[H]


 49 52  0  0  0  0  0  0  0  0999 V2000
   -0.7950  -54.1978  -21.7950 C   0  0  0  0  0  0  0  0  0  0  0  0
   -1.8626  -54.4979  -21.2358 O   0  0  0  0  0  0  0  0  0  0  0  0
    0.3255  -53.9638  -20.9627 O   0  0  0  0  0  0  0  0  0  0  0  0
    0.3438  -53.1606  -19.8667 C   0  0  0  0  0  0  0  0  0  0  0  0
    0.9643  -51.7993  -19.9592 C   0  0  0  0  0  0  0  0  0  0  0  0
    0.3211  -50.9557  -20.8257 O   0  0  0  0  0  0  0  0  0  0  0  0
    0.3003  -49.6266  -20.4839 C   0  0  0  0  0  0  0  0  0  0  0  0
    1.5196  -49.1150  -19.7850 C   0  0  0  0  0  0  0  0  0  0  0  0
    2.0521  -50.0169  -18.7287 C   0  0  0  0  0  0  0  0  0  0  0  0
    1.0979  -51.1861  -18.5593 C   0  0  0  0  0  0  0  0  0  0  0  0
   -0.0873  -50.8294  -17.9885 O   0  0  0  0  0  0  0  0  0  0  0  0
   -0.3775  -51.4317  -16.4608 P   0  0  0  0  0  0  0  0  0  0  0  0
   -0.7309  -52.8813  -16.4157 O   0  0  0  0  0  0  0  0  0  0  0  0
    0.9900  -51.2399  -15.4472 O   0  0  0  0  0  0  0  0  0  0  0  0
    0.9427  -50.3774  -15.0071 H   0  0  0  0  0  0  0  0  0  0  0  0
   -1.6055  -50.4752  -15.7650 O   0  0  0  0  0  0  0  0  0  0  0  0
   -2.8538  -51.0874  -15.8398 C   0  0  0  0  0  0  0  0  0  0  0  0
   -3.5916  -50.6922  -14.5700 C   0  0  0  0  0  0  0  0  0  0  0  0
   -4.8860  -51.3129  -14.5920 N   0  0  0  0  0  0  0  0  0  0  0  0
   -4.8765  -52.2846  -14.2749 H   0  0  0  0  0  0  0  0  0  0  0  0
   -5.6517  -50.7237  -14.2401 H   0  0  0  0  0  0  0  0  0  0  0  0
   -3.6225  -49.2456  -14.3357 C   0  0  0  0  0  0  0  0  0  0  0  0
   -3.8531  -48.4409  -15.2642 O   0  0  0  0  0  0  0  0  0  0  0  0
   -3.3941  -48.7409  -13.0699 O   0  0  0  0  0  0  0  0  0  0  0  0
   -3.9739  -48.8430  -12.2710 H   0  0  0  0  0  0  0  0  0  0  0  0
   -0.6324  -54.0666  -23.2390 C   0  0  0  0  0  0  0  0  0  0  0  0
   -0.0293  -52.8466  -23.8009 C   0  0  0  0  0  0  0  0  0  0  0  0
    1.0754  -53.0351  -26.0685 C   0  0  0  0  0  0  0  0  0  0  0  0
    0.9334  -53.0138  -27.4293 C   0  0  0  0  0  0  0  0  0  0  0  0
   -0.2725  -52.6810  -28.0599 C   0  0  0  0  0  0  0  0  0  0  0  0
   -1.3429  -52.3668  -27.2579 C   0  0  0  0  0  0  0  0  0  0  0  0
   -1.2284  -52.3834  -25.8938 C   0  0  0  0  0  0  0  0  0  0  0  0
   -0.0323  -52.7158  -25.2838 C   0  0  0  0  0  0  0  0  0  0  0  0
    2.2540  -53.3448  -25.4844 O   0  0  0  0  0  0  0  0  0  0  0  0
    3.4842  -52.7470  -25.4622 C   0  0  0  0  0  0  0  0  0  0  0  0
    3.9221  -49.0329  -24.8466 C   0  0  0  0  0  0  0  0  0  0  0  0
    3.4975  -48.8902  -23.5231 C   0  0  0  0  0  0  0  0  0  0  0  0
    3.0861  -50.0365  -22.8881 C   0  0  0  0  0  0  0  0  0  0  0  0
    3.0881  -51.2614  -23.5126 C   0  0  0  0  0  0  0  0  0  0  0  0
    3.5132  -51.3765  -24.8270 C   0  0  0  0  0  0  0  0  0  0  0  0
    3.9266  -50.2521  -25.4777 C   0  0  0  0  0  0  0  0  0  0  0  0
    4.3386  -47.8700  -25.4733 O   0  0  0  0  0  0  0  0  0  0  0  0
    1.9798  -45.6325  -30.0416 C   0  0  0  0  0  0  0  0  0  0  0  0
    2.6081  -46.2232  -28.8434 C   0  0  0  0  0  0  0  0  0  0  0  0
    3.6767  -47.0989  -28.9819 C   0  0  0  0  0  0  0  0  0  0  0  0
    4.2431  -47.6392  -27.8301 C   0  0  0  0  0  0  0  0  0  0  0  0
    3.7739  -47.3299  -26.5800 C   0  0  0  0  0  0  0  0  0  0  0  0
    2.6994  -46.4474  -26.4685 C   0  0  0  0  0  0  0  0  0  0  0  0
    2.1157  -45.8943  -27.5827 C   0  0  0  0  0  0  0  0  0  0  0  0
 43 44  1  0  0  0
 44 45  2  0  0  0
 45 46  1  0  0  0
 46 47  2  0  0  0
 47 42  1  0  0  0
 42 36  1  0  0  0
 36 37  2  0  0  0
 37 38  1  0  0  0
 38 39  2  0  0  0
 39 40  1  0  0  0
 40 35  1  0  0  0
 35 34  1  0  0  0
 34 28  1  0  0  0
 28 29  2  0  0  0
 29 30  1  0  0  0
 30 31  2  0  0  0
 31 32  1  0  0  0
 32 33  2  0  0  0
 33 27  1  0  0  0
 27 26  1  0  0  0
 26  1  1  0  0  0
  1  2  2  0  0  0
  1  3  1  0  0  0
  3  4  1  0  0  0
  4  5  1  0  0  0
  5  6  1  0  0  0
  6  7  1  0  0  0
  7  8  1  0  0  0
  8  9  1  0  0  0
  9 10  1  0  0  0
 10 11  1  0  0  0
 11 12  1  0  0  0
 12 13  2  0  0  0
 12 14  1  0  0  0
 12 16  1  0  0  0
 16 17  1  0  0  0
 17 18  1  0  0  0
 18 19  1  0  0  0
 18 22  1  0  0  0
 22 23  2  0  0  0
 22 24  1  0  0  0
 40 41  2  0  0  0
 47 48  1  0  0  0
 48 49  2  0  0  0
 49 44  1  0  0  0
 41 36  1  0  0  0
 33 28  1  0  0  0
 10  5  1  0  0  0
 14 15  1  0  0  0
 19 20  1  0  0  0
 19 21  1  0  0  0
 24 25  1  0  0  0
M  END
> <minimizedAffinity>
-7.65351

> <CNNscore>
0.3683253229

> <CNNaffinity>
6.7406830788

> <CNN_VS>
2.4827642441

> <CNNaffinity_variance>
0.1110907197

$$$$
[H]OC(=O)[C@@]([H])(N([H])[H])C([H])([H])OP(=O)(O[H])O[C@]1([H])C([H])([H])C([H])([H])C([H])([H])O[C@]1([H])C([H])([H])OC(=O)C([H])([H])C([H])([H])c1c([H])c([H])c([H])c([H])c1OC([H])([H])c1c([H])c([H])c([H])c(Oc2c([H])c([H])c(C([H])([H])[H])c([H])c2[H])c1[H]


 49 52  0  0  0  0  0  0  0  0999 V2000
   -1.1049  -54.5275  -22.2977 C   0  0  0  0  0  0  0  0  0  0  0  0
   -2.1881  -54.8561  -21.7866 O   0  0  0  0  0  0  0  0  0  0  0  0
   -0.9342  -54.7967  -23.6765 O   0  0  0  0  0  0  0  0  0  0  0  0
   -0.0537  -54.1723  -24.5022 C   0  0  0  0  0  0  0  0  0  0  0  0
   -0.4184  -53.9512  -25.9391 C   0  0  0  0  0  0  0  0  0  0  0  0
   -1.4733  -53.0958  -26.1171 O   0  0  0  0  0  0  0  0  0  0  0  0
   -1.4325  -52.2974  -27.2328 C   0  0  0  0  0  0  0  0  0  0  0  0
   -0.8158  -52.9105  -28.4497 C   0  0  0  0  0  0  0  0  0  0  0  0
    0.4325  -53.6772  -28.1920 C   0  0  0  0  0  0  0  0  0  0  0  0
    0.8170  -53.5067  -26.7327 C   0  0  0  0  0  0  0  0  0  0  0  0
    1.2490  -52.2480  -26.4381 O   0  0  0  0  0  0  0  0  0  0  0  0
    2.9010  -52.0422  -26.3416 P   0  0  0  0  0  0  0  0  0  0  0  0
    3.7032  -53.2643  -26.6438 O   0  0  0  0  0  0  0  0  0  0  0  0
    3.4411  -50.8334  -27.4283 O   0  0  0  0  0  0  0  0  0  0  0  0
    3.4087  -49.9705  -26.9876 H   0  0  0  0  0  0  0  0  0  0  0  0
    3.2462  -51.4478  -24.7813 O   0  0  0  0  0  0  0  0  0  0  0  0
    4.4655  -50.7773  -24.7327 C   0  0  0  0  0  0  0  0  0  0  0  0
    5.2158  -51.3567  -23.5434 C   0  0  0  0  0  0  0  0  0  0  0  0
    5.5033  -52.7351  -23.8232 N   0  0  0  0  0  0  0  0  0  0  0  0
    6.3350  -52.8677  -24.4026 H   0  0  0  0  0  0  0  0  0  0  0  0
    5.3996  -53.3679  -23.0194 H   0  0  0  0  0  0  0  0  0  0  0  0
    4.5448  -51.1310  -22.2600 C   0  0  0  0  0  0  0  0  0  0  0  0
    5.0700  -50.4339  -21.3650 O   0  0  0  0  0  0  0  0  0  0  0  0
    3.3063  -51.6919  -22.0145 O   0  0  0  0  0  0  0  0  0  0  0  0
    2.4479  -51.4656  -22.4583 H   0  0  0  0  0  0  0  0  0  0  0  0
   -0.0104  -53.8960  -21.5682 C   0  0  0  0  0  0  0  0  0  0  0  0
   -0.0363  -52.4450  -21.3196 C   0  0  0  0  0  0  0  0  0  0  0  0
    0.6632  -50.8083  -19.5223 C   0  0  0  0  0  0  0  0  0  0  0  0
    0.5753  -50.4218  -18.2127 C   0  0  0  0  0  0  0  0  0  0  0  0
   -0.0957  -51.1784  -17.2430 C   0  0  0  0  0  0  0  0  0  0  0  0
   -0.6819  -52.3531  -17.6479 C   0  0  0  0  0  0  0  0  0  0  0  0
   -0.6113  -52.7612  -18.9528 C   0  0  0  0  0  0  0  0  0  0  0  0
    0.0527  -52.0036  -19.9007 C   0  0  0  0  0  0  0  0  0  0  0  0
    1.3294  -50.0681  -20.4358 O   0  0  0  0  0  0  0  0  0  0  0  0
    1.0783  -48.8703  -21.0471 C   0  0  0  0  0  0  0  0  0  0  0  0
    3.9574  -47.3025  -22.9493 C   0  0  0  0  0  0  0  0  0  0  0  0
    4.5935  -46.5396  -21.9666 C   0  0  0  0  0  0  0  0  0  0  0  0
    4.0406  -46.5808  -20.7101 C   0  0  0  0  0  0  0  0  0  0  0  0
    2.9225  -47.3283  -20.4254 C   0  0  0  0  0  0  0  0  0  0  0  0
    2.3088  -48.0762  -21.4184 C   0  0  0  0  0  0  0  0  0  0  0  0
    2.8402  -48.0513  -22.6736 C   0  0  0  0  0  0  0  0  0  0  0  0
    4.5282  -47.2556  -24.2104 O   0  0  0  0  0  0  0  0  0  0  0  0
    1.8981  -45.7630  -28.9321 C   0  0  0  0  0  0  0  0  0  0  0  0
    2.5843  -46.1521  -27.6843 C   0  0  0  0  0  0  0  0  0  0  0  0
    2.3237  -45.4640  -26.5068 C   0  0  0  0  0  0  0  0  0  0  0  0
    2.9911  -45.8566  -25.3493 C   0  0  0  0  0  0  0  0  0  0  0  0
    3.8881  -46.8929  -25.3480 C   0  0  0  0  0  0  0  0  0  0  0  0
    4.1317  -47.5678  -26.5442 C   0  0  0  0  0  0  0  0  0  0  0  0
    3.4913  -47.2089  -27.7058 C   0  0  0  0  0  0  0  0  0  0  0  0
 43 44  1  0  0  0
 44 45  2  0  0  0
 45 46  1  0  0  0
 46 47  2  0  0  0
 47 42  1  0  0  0
 42 36  1  0  0  0
 36 37  2  0  0  0
 37 38  1  0  0  0
 38 39  2  0  0  0
 39 40  1  0  0  0
 40 35  1  0  0  0
 35 34  1  0  0  0
 34 28  1  0  0  0
 28 29  2  0  0  0
 29 30  1  0  0  0
 30 31  2  0  0  0
 31 32  1  0  0  0
 32 33  2  0  0  0
 33 27  1  0  0  0
 27 26  1  0  0  0
 26  1  1  0  0  0
  1  2  2  0  0  0
  1  3  1  0  0  0
  3  4  1  0  0  0
  4  5  1  0  0  0
  5  6  1  0  0  0
  6  7  1  0  0  0
  7  8  1  0  0  0
  8  9  1  0  0  0
  9 10  1  0  0  0
 10 11  1  0  0  0
 11 12  1  0  0  0
 12 13  2  0  0  0
 12 14  1  0  0  0
 12 16  1  0  0  0
 16 17  1  0  0  0
 17 18  1  0  0  0
 18 19  1  0  0  0
 18 22  1  0  0  0
 22 23  2  0  0  0
 22 24  1  0  0  0
 40 41  2  0  0  0
 47 48  1  0  0  0
 48 49  2  0  0  0
 49 44  1  0  0  0
 41 36  1  0  0  0
 33 28  1  0  0  0
 10  5  1  0  0  0
 14 15  1  0  0  0
 19 20  1  0  0  0
 19 21  1  0  0  0
 24 25  1  0  0  0
M  END
> <minimizedAffinity>
-8.11334

> <CNNscore>
0.3635199666

> <CNNaffinity>
6.6238784790

> <CNN_VS>
2.4079120159

> <CNNaffinity_variance>
0.5791393518

$$$$
[H]OC(=O)[C@@]([H])(N([H])[H])C([H])([H])OP(=O)(O[H])O[C@]1([H])C([H])([H])C([H])([H])C([H])([H])O[C@]1([H])C([H])([H])OC(=O)C([H])([H])C([H])([H])c1c([H])c([H])c([H])c([H])c1OC([H])([H])c1c([H])c([H])c([H])c(Oc2c([H])c([H])c(C([H])([H])[H])c([H])c2[H])c1[H]


 49 52  0  0  0  0  0  0  0  0999 V2000
   -0.8585  -54.2552  -22.0861 C   0  0  0  0  0  0  0  0  0  0  0  0
   -1.9001  -54.7208  -21.5956 O   0  0  0  0  0  0  0  0  0  0  0  0
   -0.6760  -54.4122  -23.4807 O   0  0  0  0  0  0  0  0  0  0  0  0
   -0.2647  -53.4426  -24.3397 C   0  0  0  0  0  0  0  0  0  0  0  0
   -0.5300  -53.5952  -25.8070 C   0  0  0  0  0  0  0  0  0  0  0  0
   -1.5666  -52.8259  -26.2649 O   0  0  0  0  0  0  0  0  0  0  0  0
   -1.4467  -52.3336  -27.5405 C   0  0  0  0  0  0  0  0  0  0  0  0
   -0.7514  -53.2253  -28.5196 C   0  0  0  0  0  0  0  0  0  0  0  0
    0.4732  -53.8862  -27.9941 C   0  0  0  0  0  0  0  0  0  0  0  0
    0.7584  -53.3488  -26.6026 C   0  0  0  0  0  0  0  0  0  0  0  0
    1.1748  -52.0510  -26.6066 O   0  0  0  0  0  0  0  0  0  0  0  0
    2.8203  -51.8080  -26.7257 P   0  0  0  0  0  0  0  0  0  0  0  0
    3.6521  -52.7422  -25.9110 O   0  0  0  0  0  0  0  0  0  0  0  0
    3.3574  -51.9748  -28.3437 O   0  0  0  0  0  0  0  0  0  0  0  0
    3.2996  -51.1158  -28.7894 H   0  0  0  0  0  0  0  0  0  0  0  0
    3.1235  -50.1841  -26.3038 O   0  0  0  0  0  0  0  0  0  0  0  0
    3.7086  -49.4711  -27.3468 C   0  0  0  0  0  0  0  0  0  0  0  0
    4.3716  -48.2608  -26.7075 C   0  0  0  0  0  0  0  0  0  0  0  0
    3.3834  -47.2284  -26.5709 N   0  0  0  0  0  0  0  0  0  0  0  0
    2.7957  -47.3350  -25.7413 H   0  0  0  0  0  0  0  0  0  0  0  0
    3.7224  -46.2789  -26.7729 H   0  0  0  0  0  0  0  0  0  0  0  0
    5.5964  -47.8340  -27.3902 C   0  0  0  0  0  0  0  0  0  0  0  0
    5.7033  -46.6884  -27.8790 O   0  0  0  0  0  0  0  0  0  0  0  0
    6.6659  -48.7010  -27.5069 O   0  0  0  0  0  0  0  0  0  0  0  0
    7.2407  -49.0446  -26.7745 H   0  0  0  0  0  0  0  0  0  0  0  0
    0.1772  -53.5719  -21.3183 C   0  0  0  0  0  0  0  0  0  0  0  0
   -0.0887  -52.2385  -20.7534 C   0  0  0  0  0  0  0  0  0  0  0  0
    0.3398  -51.1892  -18.4921 C   0  0  0  0  0  0  0  0  0  0  0  0
   -0.0047  -51.1097  -17.1702 C   0  0  0  0  0  0  0  0  0  0  0  0
   -0.9474  -51.9621  -16.5806 C   0  0  0  0  0  0  0  0  0  0  0  0
   -1.5370  -52.9088  -17.3830 C   0  0  0  0  0  0  0  0  0  0  0  0
   -1.2124  -53.0075  -18.7093 C   0  0  0  0  0  0  0  0  0  0  0  0
   -0.2813  -52.1582  -19.2795 C   0  0  0  0  0  0  0  0  0  0  0  0
    1.2636  -50.3649  -19.0338 O   0  0  0  0  0  0  0  0  0  0  0  0
    2.6298  -50.3886  -19.0986 C   0  0  0  0  0  0  0  0  0  0  0  0
    3.6886  -49.3457  -22.5852 C   0  0  0  0  0  0  0  0  0  0  0  0
    4.3178  -50.4951  -23.0703 C   0  0  0  0  0  0  0  0  0  0  0  0
    4.3609  -51.5718  -22.2186 C   0  0  0  0  0  0  0  0  0  0  0  0
    3.8179  -51.5299  -20.9562 C   0  0  0  0  0  0  0  0  0  0  0  0
    3.1998  -50.3769  -20.4977 C   0  0  0  0  0  0  0  0  0  0  0  0
    3.1445  -49.2953  -21.3258 C   0  0  0  0  0  0  0  0  0  0  0  0
    3.6482  -48.2693  -23.4560 O   0  0  0  0  0  0  0  0  0  0  0  0
    5.8208  -43.1950  -22.4710 C   0  0  0  0  0  0  0  0  0  0  0  0
    5.2564  -44.5346  -22.7282 C   0  0  0  0  0  0  0  0  0  0  0  0
    6.1022  -45.6039  -22.9913 C   0  0  0  0  0  0  0  0  0  0  0  0
    5.5350  -46.8527  -23.2320 C   0  0  0  0  0  0  0  0  0  0  0  0
    4.1781  -47.0459  -23.2159 C   0  0  0  0  0  0  0  0  0  0  0  0
    3.3506  -45.9551  -22.9488 C   0  0  0  0  0  0  0  0  0  0  0  0
    3.8746  -44.7083  -22.7060 C   0  0  0  0  0  0  0  0  0  0  0  0
 43 44  1  0  0  0
 44 45  2  0  0  0
 45 46  1  0  0  0
 46 47  2  0  0  0
 47 42  1  0  0  0
 42 36  1  0  0  0
 36 37  2  0  0  0
 37 38  1  0  0  0
 38 39  2  0  0  0
 39 40  1  0  0  0
 40 35  1  0  0  0
 35 34  1  0  0  0
 34 28  1  0  0  0
 28 29  2  0  0  0
 29 30  1  0  0  0
 30 31  2  0  0  0
 31 32  1  0  0  0
 32 33  2  0  0  0
 33 27  1  0  0  0
 27 26  1  0  0  0
 26  1  1  0  0  0
  1  2  2  0  0  0
  1  3  1  0  0  0
  3  4  1  0  0  0
  4  5  1  0  0  0
  5  6  1  0  0  0
  6  7  1  0  0  0
  7  8  1  0  0  0
  8  9  1  0  0  0
  9 10  1  0  0  0
 10 11  1  0  0  0
 11 12  1  0  0  0
 12 13  2  0  0  0
 12 14  1  0  0  0
 12 16  1  0  0  0
 16 17  1  0  0  0
 17 18  1  0  0  0
 18 19  1  0  0  0
 18 22  1  0  0  0
 22 23  2  0  0  0
 22 24  1  0  0  0
 40 41  2  0  0  0
 47 48  1  0  0  0
 48 49  2  0  0  0
 49 44  1  0  0  0
 41 36  1  0  0  0
 33 28  1  0  0  0
 10  5  1  0  0  0
 14 15  1  0  0  0
 19 20  1  0  0  0
 19 21  1  0  0  0
 24 25  1  0  0  0
M  END
> <minimizedAffinity>
-7.30289

> <CNNscore>
0.2468299568

> <CNNaffinity>
6.7544069290

> <CNN_VS>
1.6671899557

> <CNNaffinity_variance>
0.0366102271

$$$$
[H]OC(=O)[C@@]([H])(N([H])[H])C([H])([H])OP(=O)(O[H])O[C@]1([H])C([H])([H])C([H])([H])C([H])([H])O[C@]1([H])C([H])([H])OC(=O)C([H])([H])C([H])([H])c1c([H])c([H])c([H])c([H])c1OC([H])([H])c1c([H])c([H])c([H])c(Oc2c([H])c([H])c(C([H])([H])[H])c([H])c2[H])c1[H]


 49 52  0  0  0  0  0  0  0  0999 V2000
   -0.8124  -54.5345  -22.2720 C   0  0  0  0  0  0  0  0  0  0  0  0
   -1.7664  -55.3028  -22.4772 O   0  0  0  0  0  0  0  0  0  0  0  0
   -0.1011  -54.0724  -23.4049 O   0  0  0  0  0  0  0  0  0  0  0  0
   -0.5474  -53.1506  -24.2982 C   0  0  0  0  0  0  0  0  0  0  0  0
   -0.4867  -53.4542  -25.7648 C   0  0  0  0  0  0  0  0  0  0  0  0
   -1.5084  -52.8979  -26.4878 O   0  0  0  0  0  0  0  0  0  0  0  0
   -1.2050  -52.4906  -27.7629 C   0  0  0  0  0  0  0  0  0  0  0  0
   -0.2068  -53.3306  -28.4944 C   0  0  0  0  0  0  0  0  0  0  0  0
    0.9680  -53.7450  -27.6815 C   0  0  0  0  0  0  0  0  0  0  0  0
    0.8872  -53.0653  -26.3258 C   0  0  0  0  0  0  0  0  0  0  0  0
    1.1068  -51.7215  -26.3885 O   0  0  0  0  0  0  0  0  0  0  0  0
    2.6017  -51.1965  -25.8687 P   0  0  0  0  0  0  0  0  0  0  0  0
    2.6832  -50.8814  -24.4119 O   0  0  0  0  0  0  0  0  0  0  0  0
    3.8126  -52.3690  -26.1740 O   0  0  0  0  0  0  0  0  0  0  0  0
    4.1810  -52.2243  -27.0590 H   0  0  0  0  0  0  0  0  0  0  0  0
    3.0202  -49.8430  -26.8173 O   0  0  0  0  0  0  0  0  0  0  0  0
    4.1153  -49.1569  -26.2989 C   0  0  0  0  0  0  0  0  0  0  0  0
    4.7465  -48.4254  -27.4735 C   0  0  0  0  0  0  0  0  0  0  0  0
    4.5389  -49.2129  -28.6558 N   0  0  0  0  0  0  0  0  0  0  0  0
    3.6174  -49.0787  -29.0773 H   0  0  0  0  0  0  0  0  0  0  0  0
    5.3386  -49.2384  -29.3016 H   0  0  0  0  0  0  0  0  0  0  0  0
    6.1424  -48.0419  -27.2440 C   0  0  0  0  0  0  0  0  0  0  0  0
    6.5287  -46.8642  -27.4068 O   0  0  0  0  0  0  0  0  0  0  0  0
    7.0660  -48.9867  -26.8398 O   0  0  0  0  0  0  0  0  0  0  0  0
    7.0945  -49.4618  -25.9690 H   0  0  0  0  0  0  0  0  0  0  0  0
   -0.3831  -54.0928  -20.9493 C   0  0  0  0  0  0  0  0  0  0  0  0
    0.2115  -52.7565  -20.7801 C   0  0  0  0  0  0  0  0  0  0  0  0
    0.5766  -50.8557  -19.1518 C   0  0  0  0  0  0  0  0  0  0  0  0
    0.3034  -50.3157  -17.9245 C   0  0  0  0  0  0  0  0  0  0  0  0
   -0.4312  -50.9958  -16.9443 C   0  0  0  0  0  0  0  0  0  0  0  0
   -0.8855  -52.2556  -17.2513 C   0  0  0  0  0  0  0  0  0  0  0  0
   -0.6285  -52.8176  -18.4729 C   0  0  0  0  0  0  0  0  0  0  0  0
    0.0964  -52.1343  -19.4326 C   0  0  0  0  0  0  0  0  0  0  0  0
    1.3006  -50.1850  -20.0750 O   0  0  0  0  0  0  0  0  0  0  0  0
    1.3058  -48.8893  -20.5137 C   0  0  0  0  0  0  0  0  0  0  0  0
    4.6924  -48.8171  -22.2140 C   0  0  0  0  0  0  0  0  0  0  0  0
    4.5775  -47.7248  -23.0777 C   0  0  0  0  0  0  0  0  0  0  0  0
    3.3790  -47.0544  -23.0566 C   0  0  0  0  0  0  0  0  0  0  0  0
    2.3433  -47.4305  -22.2344 C   0  0  0  0  0  0  0  0  0  0  0  0
    2.4817  -48.5189  -21.3870 C   0  0  0  0  0  0  0  0  0  0  0  0
    3.6629  -49.1997  -21.3903 C   0  0  0  0  0  0  0  0  0  0  0  0
    5.9077  -49.4809  -22.2421 O   0  0  0  0  0  0  0  0  0  0  0  0
   10.3323  -48.2516  -19.0247 C   0  0  0  0  0  0  0  0  0  0  0  0
    9.1728  -48.5779  -19.8782 C   0  0  0  0  0  0  0  0  0  0  0  0
    9.3274  -48.6591  -21.2556 C   0  0  0  0  0  0  0  0  0  0  0  0
    8.2115  -48.9664  -22.0299 C   0  0  0  0  0  0  0  0  0  0  0  0
    6.9804  -49.1863  -21.4689 C   0  0  0  0  0  0  0  0  0  0  0  0
    6.8521  -49.0988  -20.0827 C   0  0  0  0  0  0  0  0  0  0  0  0
    7.9312  -48.7984  -19.2867 C   0  0  0  0  0  0  0  0  0  0  0  0
 43 44  1  0  0  0
 44 45  2  0  0  0
 45 46  1  0  0  0
 46 47  2  0  0  0
 47 42  1  0  0  0
 42 36  1  0  0  0
 36 37  2  0  0  0
 37 38  1  0  0  0
 38 39  2  0  0  0
 39 40  1  0  0  0
 40 35  1  0  0  0
 35 34  1  0  0  0
 34 28  1  0  0  0
 28 29  2  0  0  0
 29 30  1  0  0  0
 30 31  2  0  0  0
 31 32  1  0  0  0
 32 33  2  0  0  0
 33 27  1  0  0  0
 27 26  1  0  0  0
 26  1  1  0  0  0
  1  2  2  0  0  0
  1  3  1  0  0  0
  3  4  1  0  0  0
  4  5  1  0  0  0
  5  6  1  0  0  0
  6  7  1  0  0  0
  7  8  1  0  0  0
  8  9  1  0  0  0
  9 10  1  0  0  0
 10 11  1  0  0  0
 11 12  1  0  0  0
 12 13  2  0  0  0
 12 14  1  0  0  0
 12 16  1  0  0  0
 16 17  1  0  0  0
 17 18  1  0  0  0
 18 19  1  0  0  0
 18 22  1  0  0  0
 22 23  2  0  0  0
 22 24  1  0  0  0
 40 41  2  0  0  0
 47 48  1  0  0  0
 48 49  2  0  0  0
 49 44  1  0  0  0
 41 36  1  0  0  0
 33 28  1  0  0  0
 10  5  1  0  0  0
 14 15  1  0  0  0
 19 20  1  0  0  0
 19 21  1  0  0  0
 24 25  1  0  0  0
M  END
> <minimizedAffinity>
-7.59840

> <CNNscore>
0.2348390222

> <CNNaffinity>
6.4629669189

> <CNN_VS>
1.5177568197

> <CNNaffinity_variance>
0.1600282490

$$$$
[H]C([H])([H])C1([H])OC([H])(C([H])([H])[N+](C([H])([H])[H])(C([H])([H])[H])C([H])([H])[H])C([H])([H])OC1([H])[H].[I-]


 12 12  0  0  0  0  0  0  0  0999 V2000
   -0.2818  -52.1169  -20.6209 C   0  0  0  0  0  0  0  0  0  0  0  0
    0.1984  -53.1127  -21.6820 C   0  0  0  0  0  0  0  0  0  0  0  0
   -0.3836  -54.4573  -21.2810 C   0  0  0  0  0  0  0  0  0  0  0  0
   -1.5482  -54.6144  -22.0697 O   0  0  0  0  0  0  0  0  0  0  0  0
   -1.0690  -54.8556  -23.3727 C   0  0  0  0  0  0  0  0  0  0  0  0
   -0.2651  -53.6650  -23.8829 C   0  0  0  0  0  0  0  0  0  0  0  0
   -0.2310  -52.6818  -22.9101 O   0  0  0  0  0  0  0  0  0  0  0  0
   -0.9386  -53.1628  -25.1185 C   0  0  0  0  0  0  0  0  0  0  0  0
   -0.1876  -53.2555  -26.3124 N   0  0  0  0  0  0  0  0  0  0  0  0
    1.0648  -52.4965  -26.1647 C   0  0  0  0  0  0  0  0  0  0  0  0
   -0.9462  -52.6252  -27.4043 C   0  0  0  0  0  0  0  0  0  0  0  0
    0.1582  -54.5675  -26.7410 C   0  0  0  0  0  0  0  0  0  0  0  0
  1  2  1  0  0  0
  2  3  1  0  0  0
  3  4  1  0  0  0
  4  5  1  0  0  0
  5  6  1  0  0  0
  6  8  1  0  0  0
  8  9  1  0  0  0
  9 10  1  0  0  0
  9 11  1  0  0  0
  9 12  1  0  0  0
  6  7  1  0  0  0
  7  2  1  0  0  0
M  CHG 1   9   1
M  END
> <minimizedAffinity>
-4.51314

> <CNNscore>
0.5505539775

> <CNNaffinity>
3.9951813221

> <CNN_VS>
2.1995630264

> <CNNaffinity_variance>
0.2711617053

$$$$
[H]C([H])([H])C1([H])OC([H])(C([H])([H])[N+](C([H])([H])[H])(C([H])([H])[H])C([H])([H])[H])C([H])([H])OC1([H])[H].[I-]


 12 12  0  0  0  0  0  0  0  0999 V2000
    0.4907  -50.5505  -21.0459 C   0  0  0  0  0  0  0  0  0  0  0  0
    0.8479  -51.8784  -21.7223 C   0  0  0  0  0  0  0  0  0  0  0  0
    0.2777  -52.9652  -20.8272 C   0  0  0  0  0  0  0  0  0  0  0  0
   -0.9589  -53.3262  -21.4133 O   0  0  0  0  0  0  0  0  0  0  0  0
   -0.6094  -54.0326  -22.5813 C   0  0  0  0  0  0  0  0  0  0  0  0
    0.1680  -53.1398  -23.5418 C   0  0  0  0  0  0  0  0  0  0  0  0
    0.3142  -51.8819  -22.9847 O   0  0  0  0  0  0  0  0  0  0  0  0
   -0.6077  -53.0663  -24.8167 C   0  0  0  0  0  0  0  0  0  0  0  0
    0.0598  -53.5291  -25.9734 N   0  0  0  0  0  0  0  0  0  0  0  0
    0.0137  -54.9998  -26.0114 C   0  0  0  0  0  0  0  0  0  0  0  0
    1.4780  -53.1453  -25.8926 C   0  0  0  0  0  0  0  0  0  0  0  0
   -0.4353  -53.0557  -27.2206 C   0  0  0  0  0  0  0  0  0  0  0  0
  1  2  1  0  0  0
  2  3  1  0  0  0
  3  4  1  0  0  0
  4  5  1  0  0  0
  5  6  1  0  0  0
  6  8  1  0  0  0
  8  9  1  0  0  0
  9 10  1  0  0  0
  9 11  1  0  0  0
  9 12  1  0  0  0
  6  7  1  0  0  0
  7  2  1  0  0  0
M  CHG 1   9   1
M  END
> <minimizedAffinity>
-4.13972

> <CNNscore>
0.3934594691

> <CNNaffinity>
3.7774624825

> <CNN_VS>
1.4862784147

> <CNNaffinity_variance>
0.3083752990

$$$$
[H]C([H])([H])C1([H])OC([H])(C([H])([H])[N+](C([H])([H])[H])(C([H])([H])[H])C([H])([H])[H])C([H])([H])OC1([H])[H].[I-]


 12 12  0  0  0  0  0  0  0  0999 V2000
   -1.7530  -52.6356  -28.3222 C   0  0  0  0  0  0  0  0  0  0  0  0
   -0.5980  -53.1825  -27.4763 C   0  0  0  0  0  0  0  0  0  0  0  0
    0.5171  -53.5032  -28.4567 C   0  0  0  0  0  0  0  0  0  0  0  0
    1.3890  -52.3892  -28.4137 O   0  0  0  0  0  0  0  0  0  0  0  0
    2.0323  -52.4855  -27.1638 C   0  0  0  0  0  0  0  0  0  0  0  0
    1.0226  -52.3862  -26.0260 C   0  0  0  0  0  0  0  0  0  0  0  0
   -0.2485  -52.2341  -26.5507 O   0  0  0  0  0  0  0  0  0  0  0  0
    1.3960  -51.2025  -25.1941 C   0  0  0  0  0  0  0  0  0  0  0  0
    1.5933  -51.4530  -23.8171 N   0  0  0  0  0  0  0  0  0  0  0  0
    1.9323  -50.1946  -23.1329 C   0  0  0  0  0  0  0  0  0  0  0  0
    2.7451  -52.3541  -23.6554 C   0  0  0  0  0  0  0  0  0  0  0  0
    0.4997  -52.0359  -23.1179 C   0  0  0  0  0  0  0  0  0  0  0  0
  1  2  1  0  0  0
  2  3  1  0  0  0
  3  4  1  0  0  0
  4  5  1  0  0  0
  5  6  1  0  0  0
  6  8  1  0  0  0
  8  9  1  0  0  0
  9 10  1  0  0  0
  9 11  1  0  0  0
  9 12  1  0  0  0
  6  7  1  0  0  0
  7  2  1  0  0  0
M  CHG 1   9   1
M  END
> <minimizedAffinity>
-4.19040

> <CNNscore>
0.3543263376

> <CNNaffinity>
3.7299149036

> <CNN_VS>
1.3216071129

> <CNNaffinity_variance>
0.2391578406

$$$$
[H]C([H])([H])C1([H])OC([H])(C([H])([H])[N+](C([H])([H])[H])(C([H])([H])[H])C([H])([H])[H])C([H])([H])OC1([H])[H].[I-]


 12 12  0  0  0  0  0  0  0  0999 V2000
   -1.4797  -52.4970  -28.6713 C   0  0  0  0  0  0  0  0  0  0  0  0
   -0.4809  -53.1368  -27.7010 C   0  0  0  0  0  0  0  0  0  0  0  0
    0.7382  -53.4901  -28.5354 C   0  0  0  0  0  0  0  0  0  0  0  0
    1.6542  -52.4305  -28.3322 O   0  0  0  0  0  0  0  0  0  0  0  0
    2.1160  -52.6039  -27.0123 C   0  0  0  0  0  0  0  0  0  0  0  0
    0.9679  -52.4826  -26.0167 C   0  0  0  0  0  0  0  0  0  0  0  0
   -0.2103  -52.2403  -26.7002 O   0  0  0  0  0  0  0  0  0  0  0  0
    1.2874  -51.3499  -25.0962 C   0  0  0  0  0  0  0  0  0  0  0  0
    1.6677  -51.7094  -23.7832 N   0  0  0  0  0  0  0  0  0  0  0  0
    0.8534  -52.8492  -23.3310 C   0  0  0  0  0  0  0  0  0  0  0  0
    1.3771  -50.5871  -22.8772 C   0  0  0  0  0  0  0  0  0  0  0  0
    3.0335  -52.0613  -23.5950 C   0  0  0  0  0  0  0  0  0  0  0  0
  1  2  1  0  0  0
  2  3  1  0  0  0
  3  4  1  0  0  0
  4  5  1  0  0  0
  5  6  1  0  0  0
  6  8  1  0  0  0
  8  9  1  0  0  0
  9 10  1  0  0  0
  9 11  1  0  0  0
  9 12  1  0  0  0
  6  7  1  0  0  0
  7  2  1  0  0  0
M  CHG 1   9   1
M  END
> <minimizedAffinity>
-4.24594

> <CNNscore>
0.3316162527

> <CNNaffinity>
3.6575407982

> <CNN_VS>
1.2128999233

> <CNNaffinity_variance>
0.3611045778

$$$$
[H]C([H])([H])C1([H])OC([H])(C([H])([H])[N+](C([H])([H])[H])(C([H])([H])[H])C([H])([H])[H])C([H])([H])OC1([H])[H].[I-]


 12 12  0  0  0  0  0  0  0  0999 V2000
    2.1760  -48.0523  -21.7445 C   0  0  0  0  0  0  0  0  0  0  0  0
    3.1694  -48.7439  -22.6842 C   0  0  0  0  0  0  0  0  0  0  0  0
    2.7842  -50.2133  -22.6847 C   0  0  0  0  0  0  0  0  0  0  0  0
    1.9957  -50.3961  -23.8456 O   0  0  0  0  0  0  0  0  0  0  0  0
    2.9081  -50.3102  -24.9159 C   0  0  0  0  0  0  0  0  0  0  0  0
    3.5655  -48.9354  -24.9580 C   0  0  0  0  0  0  0  0  0  0  0  0
    3.0781  -48.1602  -23.9209 O   0  0  0  0  0  0  0  0  0  0  0  0
    3.2364  -48.3187  -26.2786 C   0  0  0  0  0  0  0  0  0  0  0  0
    4.2974  -47.6486  -26.9289 N   0  0  0  0  0  0  0  0  0  0  0  0
    4.2062  -47.8770  -28.3801 C   0  0  0  0  0  0  0  0  0  0  0  0
    5.5739  -48.2278  -26.4818 C   0  0  0  0  0  0  0  0  0  0  0  0
    4.3768  -46.2427  -26.7238 C   0  0  0  0  0  0  0  0  0  0  0  0
  1  2  1  0  0  0
  2  3  1  0  0  0
  3  4  1  0  0  0
  4  5  1  0  0  0
  5  6  1  0  0  0
  6  8  1  0  0  0
  8  9  1  0  0  0
  9 10  1  0  0  0
  9 11  1  0  0  0
  9 12  1  0  0  0
  6  7  1  0  0  0
  7  2  1  0  0  0
M  CHG 1   9   1
M  END
> <minimizedAffinity>
-2.36674

> <CNNscore>
0.3030516803

> <CNNaffinity>
2.9303994179

> <CNN_VS>
0.8880624771

> <CNNaffinity_variance>
0.1899994910

$$$$
[H]C([H])([H])C1([H])OC([H])(C([H])([H])[N+](C([H])([H])[H])(C([H])([H])[H])C([H])([H])[H])C([H])([H])OC1([H])[H].[I-]


 12 12  0  0  0  0  0  0  0  0999 V2000
    1.6607  -50.7845  -23.4352 C   0  0  0  0  0  0  0  0  0  0  0  0
    2.6672  -51.1322  -22.3331 C   0  0  0  0  0  0  0  0  0  0  0  0
    3.8280  -51.8169  -23.0338 C   0  0  0  0  0  0  0  0  0  0  0  0
    4.8059  -50.8100  -23.2153 O   0  0  0  0  0  0  0  0  0  0  0  0
    5.3163  -50.5692  -21.9242 C   0  0  0  0  0  0  0  0  0  0  0  0
    4.2216  -50.0546  -20.9964 C   0  0  0  0  0  0  0  0  0  0  0  0
    3.0282  -49.9758  -21.6920 O   0  0  0  0  0  0  0  0  0  0  0  0
    4.6401  -48.7051  -20.5104 C   0  0  0  0  0  0  0  0  0  0  0  0
    4.3357  -48.4127  -19.1615 N   0  0  0  0  0  0  0  0  0  0  0  0
    3.1570  -47.5330  -19.1038 C   0  0  0  0  0  0  0  0  0  0  0  0
    5.4577  -47.6676  -18.5691 C   0  0  0  0  0  0  0  0  0  0  0  0
    4.0761  -49.5276  -18.3163 C   0  0  0  0  0  0  0  0  0  0  0  0
  1  2  1  0  0  0
  2  3  1  0  0  0
  3  4  1  0  0  0
  4  5  1  0  0  0
  5  6  1  0  0  0
  6  8  1  0  0  0
  8  9  1  0  0  0
  9 10  1  0  0  0
  9 11  1  0  0  0
  9 12  1  0  0  0
  6  7  1  0  0  0
  7  2  1  0  0  0
M  CHG 1   9   1
M  END
> <minimizedAffinity>
-2.39429

> <CNNscore>
0.2845441401

> <CNNaffinity>
2.9317810535

> <CNN_VS>
0.8342211246

> <CNNaffinity_variance>
0.1940794885

$$$$
[H]C([H])([H])C1([H])OC([H])(C([H])([H])[N+](C([H])([H])[H])(C([H])([H])[H])C([H])([H])[H])C([H])([H])OC1([H])[H].[I-]


 12 12  0  0  0  0  0  0  0  0999 V2000
    0.6008  -53.1773  -24.3531 C   0  0  0  0  0  0  0  0  0  0  0  0
   -0.1410  -52.8171  -23.0614 C   0  0  0  0  0  0  0  0  0  0  0  0
   -0.9290  -54.0575  -22.6771 C   0  0  0  0  0  0  0  0  0  0  0  0
   -0.1415  -54.7184  -21.7045 O   0  0  0  0  0  0  0  0  0  0  0  0
   -0.2431  -53.9125  -20.5530 C   0  0  0  0  0  0  0  0  0  0  0  0
    0.3280  -52.5231  -20.8125 C   0  0  0  0  0  0  0  0  0  0  0  0
    0.7817  -52.4482  -22.1174 O   0  0  0  0  0  0  0  0  0  0  0  0
    1.4506  -52.3102  -19.8497 C   0  0  0  0  0  0  0  0  0  0  0  0
    1.3944  -51.1205  -19.0887 N   0  0  0  0  0  0  0  0  0  0  0  0
    2.6735  -50.9258  -18.3869 C   0  0  0  0  0  0  0  0  0  0  0  0
    0.3550  -51.2618  -18.0569 C   0  0  0  0  0  0  0  0  0  0  0  0
    1.1168  -49.9238  -19.8066 C   0  0  0  0  0  0  0  0  0  0  0  0
  1  2  1  0  0  0
  2  3  1  0  0  0
  3  4  1  0  0  0
  4  5  1  0  0  0
  5  6  1  0  0  0
  6  8  1  0  0  0
  8  9  1  0  0  0
  9 10  1  0  0  0
  9 11  1  0  0  0
  9 12  1  0  0  0
  6  7  1  0  0  0
  7  2  1  0  0  0
M  CHG 1   9   1
M  END
> <minimizedAffinity>
-3.79254

> <CNNscore>
0.2782472968

> <CNNaffinity>
3.3034529686

> <CNN_VS>
0.9191768765

> <CNNaffinity_variance>
0.1954263300

$$$$
[H]C([H])([H])C1([H])OC([H])(C([H])([H])[N+](C([H])([H])[H])(C([H])([H])[H])C([H])([H])[H])C([H])([H])OC1([H])[H].[I-]


 12 12  0  0  0  0  0  0  0  0999 V2000
    0.2598  -51.4256  -18.5935 C   0  0  0  0  0  0  0  0  0  0  0  0
    0.0506  -50.7625  -17.2279 C   0  0  0  0  0  0  0  0  0  0  0  0
   -0.9990  -51.6000  -16.5177 C   0  0  0  0  0  0  0  0  0  0  0  0
   -0.2755  -52.4693  -15.6669 O   0  0  0  0  0  0  0  0  0  0  0  0
    0.2130  -51.6395  -14.6381 C   0  0  0  0  0  0  0  0  0  0  0  0
    1.1522  -50.5777  -15.1990 C   0  0  0  0  0  0  0  0  0  0  0  0
    1.2528  -50.7302  -16.5704 O   0  0  0  0  0  0  0  0  0  0  0  0
    2.4838  -50.7642  -14.5475 C   0  0  0  0  0  0  0  0  0  0  0  0
    3.0685  -49.6026  -13.9937 N   0  0  0  0  0  0  0  0  0  0  0  0
    4.2538  -49.9777  -13.2056 C   0  0  0  0  0  0  0  0  0  0  0  0
    2.1119  -48.9832  -13.0631 C   0  0  0  0  0  0  0  0  0  0  0  0
    3.4719  -48.5971  -14.9161 C   0  0  0  0  0  0  0  0  0  0  0  0
  1  2  1  0  0  0
  2  3  1  0  0  0
  3  4  1  0  0  0
  4  5  1  0  0  0
  5  6  1  0  0  0
  6  8  1  0  0  0
  8  9  1  0  0  0
  9 10  1  0  0  0
  9 11  1  0  0  0
  9 12  1  0  0  0
  6  7  1  0  0  0
  7  2  1  0  0  0
M  CHG 1   9   1
M  END
> <minimizedAffinity>
-2.59467

> <CNNscore>
0.2777025998

> <CNNaffinity>
2.5924980640

> <CNN_VS>
0.7199434638

> <CNNaffinity_variance>
0.2180090249

$$$$
[H]C([H])([H])C1([H])OC([H])(C([H])([H])[N+](C([H])([H])[H])(C([H])([H])[H])C([H])([H])[H])C([H])([H])OC1([H])[H].[I-]


 12 12  0  0  0  0  0  0  0  0999 V2000
   -1.1941  -53.7949  -20.5610 C   0  0  0  0  0  0  0  0  0  0  0  0
    0.0224  -53.0958  -19.9449 C   0  0  0  0  0  0  0  0  0  0  0  0
    0.5408  -52.1489  -21.0137 C   0  0  0  0  0  0  0  0  0  0  0  0
    0.0035  -50.8810  -20.6870 O   0  0  0  0  0  0  0  0  0  0  0  0
    0.7124  -50.4764  -19.5384 C   0  0  0  0  0  0  0  0  0  0  0  0
    0.4720  -51.4439  -18.3851 C   0  0  0  0  0  0  0  0  0  0  0  0
   -0.3764  -52.4544  -18.8012 O   0  0  0  0  0  0  0  0  0  0  0  0
   -0.1407  -50.6671  -17.2654 C   0  0  0  0  0  0  0  0  0  0  0  0
    0.5540  -50.7046  -16.0350 N   0  0  0  0  0  0  0  0  0  0  0  0
    0.0731  -51.8422  -15.2343 C   0  0  0  0  0  0  0  0  0  0  0  0
    0.2460  -49.4830  -15.2748 C   0  0  0  0  0  0  0  0  0  0  0  0
    1.9711  -50.8077  -16.1124 C   0  0  0  0  0  0  0  0  0  0  0  0
  1  2  1  0  0  0
  2  3  1  0  0  0
  3  4  1  0  0  0
  4  5  1  0  0  0
  5  6  1  0  0  0
  6  8  1  0  0  0
  8  9  1  0  0  0
  9 10  1  0  0  0
  9 11  1  0  0  0
  9 12  1  0  0  0
  6  7  1  0  0  0
  7  2  1  0  0  0
M  CHG 1   9   1
M  END
> <minimizedAffinity>
-3.39930

> <CNNscore>
0.2714430094

> <CNNaffinity>
2.9922661781

> <CNN_VS>
0.8122297525

> <CNNaffinity_variance>
0.1487420052

$$$$
[H]Sc1nnc(N([H])C(=O)N([H])N=C([H])c2c([H])c([H])c([H])c(OC([H])([H])[H])c2[H])s1


 23 24  0  0  0  0  0  0  0  0999 V2000
   -1.3652  -54.2257  -21.2239 N   0  0  0  0  0  0  0  0  0  0  0  0
   -0.9261  -53.9693  -22.5417 C   0  0  0  0  0  0  0  0  0  0  0  0
   -0.4184  -52.8558  -22.8248 O   0  0  0  0  0  0  0  0  0  0  0  0
   -1.0426  -54.9366  -23.5588 N   0  0  0  0  0  0  0  0  0  0  0  0
   -1.7853  -55.1601  -21.0092 H   0  0  0  0  0  0  0  0  0  0  0  0
   -1.4564  -55.8591  -23.3511 H   0  0  0  0  0  0  0  0  0  0  0  0
   -0.5981  -54.6769  -24.8928 C   0  0  0  0  0  0  0  0  0  0  0  0
   -0.0340  -55.4980  -25.7741 N   0  0  0  0  0  0  0  0  0  0  0  0
    0.2926  -55.0740  -26.9184 N   0  0  0  0  0  0  0  0  0  0  0  0
    0.0717  -53.8060  -27.2407 C   0  0  0  0  0  0  0  0  0  0  0  0
    0.4720  -53.0541  -28.8074 S   0  0  0  0  0  0  0  0  0  0  0  0
   -0.6418  -53.2212  -25.8064 S   0  0  0  0  0  0  0  0  0  0  0  0
    0.1222  -53.8999  -29.8956 H   0  0  0  0  0  0  0  0  0  0  0  0
   -0.2152  -53.1081  -19.4962 C   0  0  0  0  0  0  0  0  0  0  0  0
   -1.2808  -53.3251  -20.1837 N   0  0  0  0  0  0  0  0  0  0  0  0
    0.6155  -50.0930  -17.4348 C   0  0  0  0  0  0  0  0  0  0  0  0
   -0.1847  -50.3264  -16.3365 C   0  0  0  0  0  0  0  0  0  0  0  0
   -0.9755  -51.4554  -16.2885 C   0  0  0  0  0  0  0  0  0  0  0  0
   -0.9917  -52.3713  -17.3185 C   0  0  0  0  0  0  0  0  0  0  0  0
   -0.1976  -52.1405  -18.4092 C   0  0  0  0  0  0  0  0  0  0  0  0
    0.5894  -51.0145  -18.4542 C   0  0  0  0  0  0  0  0  0  0  0  0
    2.2400  -48.7427  -18.6308 C   0  0  0  0  0  0  0  0  0  0  0  0
    1.4162  -48.9762  -17.5135 O   0  0  0  0  0  0  0  0  0  0  0  0
 22 23  1  0  0  0
 23 16  1  0  0  0
 16 17  2  0  0  0
 17 18  1  0  0  0
 18 19  2  0  0  0
 19 20  1  0  0  0
 20 14  1  0  0  0
 14 15  2  0  0  0
 15  1  1  0  0  0
  1  2  1  0  0  0
  2  3  2  0  0  0
  2  4  1  0  0  0
  4  7  1  0  0  0
  7  8  2  0  0  0
  8  9  1  0  0  0
  9 10  2  0  0  0
 10 11  1  0  0  0
 10 12  1  0  0  0
 20 21  2  0  0  0
 21 16  1  0  0  0
 12  7  1  0  0  0
  1  5  1  0  0  0
  4  6  1  0  0  0
 11 13  1  0  0  0
M  END
> <minimizedAffinity>
-6.60536

> <CNNscore>
0.8088095784

> <CNNaffinity>
5.7837672234

> <CNN_VS>
4.6779661179

> <CNNaffinity_variance>
0.0700776950

$$$$
[H]Sc1nnc(N([H])C(=O)N([H])N=C([H])c2c([H])c([H])c([H])c(OC([H])([H])[H])c2[H])s1


 23 24  0  0  0  0  0  0  0  0999 V2000
   -1.2651  -54.2205  -21.2702 N   0  0  0  0  0  0  0  0  0  0  0  0
   -0.8843  -53.9372  -22.6006 C   0  0  0  0  0  0  0  0  0  0  0  0
   -0.4718  -52.7894  -22.9008 O   0  0  0  0  0  0  0  0  0  0  0  0
   -0.9546  -54.9154  -23.6115 N   0  0  0  0  0  0  0  0  0  0  0  0
   -1.6059  -55.1833  -21.0414 H   0  0  0  0  0  0  0  0  0  0  0  0
   -1.2902  -55.8660  -23.3898 H   0  0  0  0  0  0  0  0  0  0  0  0
   -0.5690  -54.6286  -24.9583 C   0  0  0  0  0  0  0  0  0  0  0  0
    0.0223  -55.4113  -25.8565 N   0  0  0  0  0  0  0  0  0  0  0  0
    0.2849  -54.9681  -27.0100 N   0  0  0  0  0  0  0  0  0  0  0  0
   -0.0305  -53.7184  -27.3250 C   0  0  0  0  0  0  0  0  0  0  0  0
    0.2709  -52.9440  -28.9028 S   0  0  0  0  0  0  0  0  0  0  0  0
   -0.7382  -53.1806  -25.8696 S   0  0  0  0  0  0  0  0  0  0  0  0
   -0.0539  -53.8132  -29.9802 H   0  0  0  0  0  0  0  0  0  0  0  0
   -0.1838  -53.0904  -19.5067 C   0  0  0  0  0  0  0  0  0  0  0  0
   -1.2210  -53.3112  -20.2351 N   0  0  0  0  0  0  0  0  0  0  0  0
   -0.9793  -51.3989  -16.2607 C   0  0  0  0  0  0  0  0  0  0  0  0
   -0.2351  -50.2470  -16.4027 C   0  0  0  0  0  0  0  0  0  0  0  0
    0.5079  -50.0442  -17.5468 C   0  0  0  0  0  0  0  0  0  0  0  0
    0.5304  -50.9698  -18.5680 C   0  0  0  0  0  0  0  0  0  0  0  0
   -0.2081  -52.1136  -18.4280 C   0  0  0  0  0  0  0  0  0  0  0  0
   -0.9475  -52.3130  -17.2866 C   0  0  0  0  0  0  0  0  0  0  0  0
   -3.0535  -51.1609  -15.0222 C   0  0  0  0  0  0  0  0  0  0  0  0
   -1.7313  -51.6314  -15.1315 O   0  0  0  0  0  0  0  0  0  0  0  0
 22 23  1  0  0  0
 23 16  1  0  0  0
 16 17  2  0  0  0
 17 18  1  0  0  0
 18 19  2  0  0  0
 19 20  1  0  0  0
 20 14  1  0  0  0
 14 15  2  0  0  0
 15  1  1  0  0  0
  1  2  1  0  0  0
  2  3  2  0  0  0
  2  4  1  0  0  0
  4  7  1  0  0  0
  7  8  2  0  0  0
  8  9  1  0  0  0
  9 10  2  0  0  0
 10 11  1  0  0  0
 10 12  1  0  0  0
 20 21  2  0  0  0
 21 16  1  0  0  0
 12  7  1  0  0  0
  1  5  1  0  0  0
  4  6  1  0  0  0
 11 13  1  0  0  0
M  END
> <minimizedAffinity>
-6.67494

> <CNNscore>
0.6964368820

> <CNNaffinity>
5.6822786331

> <CNN_VS>
3.9573483467

> <CNNaffinity_variance>
0.1028833613

$$$$
[H]Sc1nnc(N([H])C(=O)N([H])N=C([H])c2c([H])c([H])c([H])c(OC([H])([H])[H])c2[H])s1


 23 24  0  0  0  0  0  0  0  0999 V2000
   -0.8230  -53.6969  -19.4745 N   0  0  0  0  0  0  0  0  0  0  0  0
   -0.9513  -53.4975  -20.8670 C   0  0  0  0  0  0  0  0  0  0  0  0
   -1.8796  -52.7774  -21.3114 O   0  0  0  0  0  0  0  0  0  0  0  0
   -0.0588  -54.0895  -21.7817 N   0  0  0  0  0  0  0  0  0  0  0  0
   -0.0425  -54.3005  -19.1252 H   0  0  0  0  0  0  0  0  0  0  0  0
    0.7121  -54.6854  -21.4411 H   0  0  0  0  0  0  0  0  0  0  0  0
   -0.1888  -53.8876  -23.1913 C   0  0  0  0  0  0  0  0  0  0  0  0
   -0.9016  -54.5690  -24.0838 N   0  0  0  0  0  0  0  0  0  0  0  0
   -0.8859  -54.2307  -25.3008 N   0  0  0  0  0  0  0  0  0  0  0  0
   -0.1559  -53.1927  -25.6885 C   0  0  0  0  0  0  0  0  0  0  0  0
   -0.0263  -52.5888  -27.3614 S   0  0  0  0  0  0  0  0  0  0  0  0
    0.5295  -52.7004  -24.2065 S   0  0  0  0  0  0  0  0  0  0  0  0
   -1.2945  -52.5577  -28.0037 H   0  0  0  0  0  0  0  0  0  0  0  0
   -1.2662  -52.6726  -17.3983 C   0  0  0  0  0  0  0  0  0  0  0  0
   -1.6603  -53.1483  -18.5268 N   0  0  0  0  0  0  0  0  0  0  0  0
   -2.6937  -50.6526  -14.5854 C   0  0  0  0  0  0  0  0  0  0  0  0
   -4.0112  -51.0539  -14.6476 C   0  0  0  0  0  0  0  0  0  0  0  0
   -4.4077  -51.9699  -15.5994 C   0  0  0  0  0  0  0  0  0  0  0  0
   -3.5156  -52.5049  -16.5039 C   0  0  0  0  0  0  0  0  0  0  0  0
   -2.2074  -52.1072  -16.4430 C   0  0  0  0  0  0  0  0  0  0  0  0
   -1.8153  -51.1941  -15.4933 C   0  0  0  0  0  0  0  0  0  0  0  0
   -0.8968  -49.5493  -13.3826 C   0  0  0  0  0  0  0  0  0  0  0  0
   -2.2660  -49.7403  -13.6476 O   0  0  0  0  0  0  0  0  0  0  0  0
 22 23  1  0  0  0
 23 16  1  0  0  0
 16 17  2  0  0  0
 17 18  1  0  0  0
 18 19  2  0  0  0
 19 20  1  0  0  0
 20 14  1  0  0  0
 14 15  2  0  0  0
 15  1  1  0  0  0
  1  2  1  0  0  0
  2  3  2  0  0  0
  2  4  1  0  0  0
  4  7  1  0  0  0
  7  8  2  0  0  0
  8  9  1  0  0  0
  9 10  2  0  0  0
 10 11  1  0  0  0
 10 12  1  0  0  0
 20 21  2  0  0  0
 21 16  1  0  0  0
 12  7  1  0  0  0
  1  5  1  0  0  0
  4  6  1  0  0  0
 11 13  1  0  0  0
M  END
> <minimizedAffinity>
-6.03206

> <CNNscore>
0.6777887344

> <CNNaffinity>
5.1742267609

> <CNN_VS>
3.5070326328

> <CNNaffinity_variance>
0.0852402970

$$$$
[H]Sc1nnc(N([H])C(=O)N([H])N=C([H])c2c([H])c([H])c([H])c(OC([H])([H])[H])c2[H])s1


 23 24  0  0  0  0  0  0  0  0999 V2000
   -0.7475  -53.7855  -19.5763 N   0  0  0  0  0  0  0  0  0  0  0  0
   -0.7524  -53.4636  -20.9516 C   0  0  0  0  0  0  0  0  0  0  0  0
   -1.2113  -52.3580  -21.3321 O   0  0  0  0  0  0  0  0  0  0  0  0
   -0.2523  -54.3564  -21.9194 N   0  0  0  0  0  0  0  0  0  0  0  0
   -0.3606  -54.7120  -19.2805 H   0  0  0  0  0  0  0  0  0  0  0  0
    0.1300  -55.2710  -21.6317 H   0  0  0  0  0  0  0  0  0  0  0  0
   -0.2573  -54.0304  -23.3116 C   0  0  0  0  0  0  0  0  0  0  0  0
   -1.0345  -54.4905  -24.2880 N   0  0  0  0  0  0  0  0  0  0  0  0
   -0.8818  -54.0740  -25.4708 N   0  0  0  0  0  0  0  0  0  0  0  0
    0.0567  -53.1752  -25.7385 C   0  0  0  0  0  0  0  0  0  0  0  0
    0.3993  -52.4883  -27.3481 S   0  0  0  0  0  0  0  0  0  0  0  0
    0.7356  -52.9376  -24.1923 S   0  0  0  0  0  0  0  0  0  0  0  0
   -0.7988  -52.1605  -28.0403 H   0  0  0  0  0  0  0  0  0  0  0  0
   -0.4721  -52.2802  -17.7835 C   0  0  0  0  0  0  0  0  0  0  0  0
   -1.2206  -52.9594  -18.5793 N   0  0  0  0  0  0  0  0  0  0  0  0
   -0.9458  -49.4537  -15.3715 C   0  0  0  0  0  0  0  0  0  0  0  0
   -2.1405  -49.8292  -14.7948 C   0  0  0  0  0  0  0  0  0  0  0  0
   -2.7659  -50.9897  -15.2004 C   0  0  0  0  0  0  0  0  0  0  0  0
   -2.2267  -51.7981  -16.1781 C   0  0  0  0  0  0  0  0  0  0  0  0
   -1.0407  -51.4262  -16.7512 C   0  0  0  0  0  0  0  0  0  0  0  0
   -0.4199  -50.2691  -16.3450 C   0  0  0  0  0  0  0  0  0  0  0  0
    1.0286  -48.0415  -15.3866 C   0  0  0  0  0  0  0  0  0  0  0  0
   -0.2965  -48.3018  -14.9892 O   0  0  0  0  0  0  0  0  0  0  0  0
 22 23  1  0  0  0
 23 16  1  0  0  0
 16 17  2  0  0  0
 17 18  1  0  0  0
 18 19  2  0  0  0
 19 20  1  0  0  0
 20 14  1  0  0  0
 14 15  2  0  0  0
 15  1  1  0  0  0
  1  2  1  0  0  0
  2  3  2  0  0  0
  2  4  1  0  0  0
  4  7  1  0  0  0
  7  8  2  0  0  0
  8  9  1  0  0  0
  9 10  2  0  0  0
 10 11  1  0  0  0
 10 12  1  0  0  0
 20 21  2  0  0  0
 21 16  1  0  0  0
 12  7  1  0  0  0
  1  5  1  0  0  0
  4  6  1  0  0  0
 11 13  1  0  0  0
M  END
> <minimizedAffinity>
-5.86843

> <CNNscore>
0.5319710374

> <CNNaffinity>
5.0766458511

> <CNN_VS>
2.7006285191

> <CNNaffinity_variance>
0.0834810510

$$$$
[H]Sc1nnc(N([H])C(=O)N([H])N=C([H])c2c([H])c([H])c([H])c(OC([H])([H])[H])c2[H])s1


 23 24  0  0  0  0  0  0  0  0999 V2000
   -0.6305  -53.5722  -19.5643 N   0  0  0  0  0  0  0  0  0  0  0  0
   -0.6495  -53.3061  -20.9514 C   0  0  0  0  0  0  0  0  0  0  0  0
   -1.0594  -52.1943  -21.3680 O   0  0  0  0  0  0  0  0  0  0  0  0
   -0.2176  -54.2621  -21.8912 N   0  0  0  0  0  0  0  0  0  0  0  0
   -0.2851  -54.5049  -19.2383 H   0  0  0  0  0  0  0  0  0  0  0  0
    0.1236  -55.1830  -21.5737 H   0  0  0  0  0  0  0  0  0  0  0  0
   -0.2368  -53.9926  -23.2954 C   0  0  0  0  0  0  0  0  0  0  0  0
   -1.0096  -54.5075  -24.2476 N   0  0  0  0  0  0  0  0  0  0  0  0
   -0.8720  -54.1360  -25.4471 N   0  0  0  0  0  0  0  0  0  0  0  0
    0.0464  -53.2297  -25.7566 C   0  0  0  0  0  0  0  0  0  0  0  0
    0.3660  -52.6015  -27.3947 S   0  0  0  0  0  0  0  0  0  0  0  0
    0.7286  -52.9162  -24.2255 S   0  0  0  0  0  0  0  0  0  0  0  0
   -0.8423  -52.3263  -28.0920 H   0  0  0  0  0  0  0  0  0  0  0  0
   -0.2385  -52.0136  -17.8399 C   0  0  0  0  0  0  0  0  0  0  0  0
   -1.0384  -52.6830  -18.5931 N   0  0  0  0  0  0  0  0  0  0  0  0
   -2.3303  -50.5160  -15.1174 C   0  0  0  0  0  0  0  0  0  0  0  0
   -1.6647  -49.3226  -14.9336 C   0  0  0  0  0  0  0  0  0  0  0  0
   -0.5532  -49.0299  -15.6958 C   0  0  0  0  0  0  0  0  0  0  0  0
   -0.0793  -49.9051  -16.6495 C   0  0  0  0  0  0  0  0  0  0  0  0
   -0.7394  -51.0901  -16.8328 C   0  0  0  0  0  0  0  0  0  0  0  0
   -1.8468  -51.3790  -16.0716 C   0  0  0  0  0  0  0  0  0  0  0  0
   -4.6350  -50.0980  -14.4804 C   0  0  0  0  0  0  0  0  0  0  0  0
   -3.4424  -50.8381  -14.3732 O   0  0  0  0  0  0  0  0  0  0  0  0
 22 23  1  0  0  0
 23 16  1  0  0  0
 16 17  2  0  0  0
 17 18  1  0  0  0
 18 19  2  0  0  0
 19 20  1  0  0  0
 20 14  1  0  0  0
 14 15  2  0  0  0
 15  1  1  0  0  0
  1  2  1  0  0  0
  2  3  2  0  0  0
  2  4  1  0  0  0
  4  7  1  0  0  0
  7  8  2  0  0  0
  8  9  1  0  0  0
  9 10  2  0  0  0
 10 11  1  0  0  0
 10 12  1  0  0  0
 20 21  2  0  0  0
 21 16  1  0  0  0
 12  7  1  0  0  0
  1  5  1  0  0  0
  4  6  1  0  0  0
 11 13  1  0  0  0
M  END
> <minimizedAffinity>
-6.03018

> <CNNscore>
0.4925305545

> <CNNaffinity>
5.1085863113

> <CNN_VS>
2.5161347389

> <CNNaffinity_variance>
0.0829447508

$$$$
[H]Sc1nnc(N([H])C(=O)N([H])N=C([H])c2c([H])c([H])c([H])c(OC([H])([H])[H])c2[H])s1


 23 24  0  0  0  0  0  0  0  0999 V2000
    0.7753  -52.3628  -20.8433 N   0  0  0  0  0  0  0  0  0  0  0  0
    0.2453  -52.5231  -22.1427 C   0  0  0  0  0  0  0  0  0  0  0  0
   -0.9816  -52.3435  -22.3429 O   0  0  0  0  0  0  0  0  0  0  0  0
    1.0619  -52.8825  -23.2326 N   0  0  0  0  0  0  0  0  0  0  0  0
    1.8003  -52.5171  -20.6982 H   0  0  0  0  0  0  0  0  0  0  0  0
    2.0731  -53.0356  -23.0936 H   0  0  0  0  0  0  0  0  0  0  0  0
    0.5254  -53.0447  -24.5480 C   0  0  0  0  0  0  0  0  0  0  0  0
   -0.0546  -54.1052  -25.1030 N   0  0  0  0  0  0  0  0  0  0  0  0
   -0.4690  -54.0511  -26.2951 N   0  0  0  0  0  0  0  0  0  0  0  0
   -0.3248  -52.9328  -26.9944 C   0  0  0  0  0  0  0  0  0  0  0  0
   -0.8533  -52.6941  -28.6807 S   0  0  0  0  0  0  0  0  0  0  0  0
    0.4483  -51.9285  -25.8534 S   0  0  0  0  0  0  0  0  0  0  0  0
   -2.1457  -53.2434  -28.9042 H   0  0  0  0  0  0  0  0  0  0  0  0
   -0.3918  -52.8481  -18.8536 C   0  0  0  0  0  0  0  0  0  0  0  0
    0.0335  -52.0132  -19.7352 N   0  0  0  0  0  0  0  0  0  0  0  0
   -3.1300  -52.5699  -16.3129 C   0  0  0  0  0  0  0  0  0  0  0  0
   -2.6252  -51.5553  -15.5276 C   0  0  0  0  0  0  0  0  0  0  0  0
   -1.4091  -50.9841  -15.8387 C   0  0  0  0  0  0  0  0  0  0  0  0
   -0.6712  -51.4012  -16.9258 C   0  0  0  0  0  0  0  0  0  0  0  0
   -1.1714  -52.4083  -17.7061 C   0  0  0  0  0  0  0  0  0  0  0  0
   -2.3837  -52.9756  -17.3934 C   0  0  0  0  0  0  0  0  0  0  0  0
   -4.9176  -53.0704  -14.7488 C   0  0  0  0  0  0  0  0  0  0  0  0
   -4.3405  -53.1606  -16.0295 O   0  0  0  0  0  0  0  0  0  0  0  0
 22 23  1  0  0  0
 23 16  1  0  0  0
 16 17  2  0  0  0
 17 18  1  0  0  0
 18 19  2  0  0  0
 19 20  1  0  0  0
 20 14  1  0  0  0
 14 15  2  0  0  0
 15  1  1  0  0  0
  1  2  1  0  0  0
  2  3  2  0  0  0
  2  4  1  0  0  0
  4  7  1  0  0  0
  7  8  2  0  0  0
  8  9  1  0  0  0
  9 10  2  0  0  0
 10 11  1  0  0  0
 10 12  1  0  0  0
 20 21  2  0  0  0
 21 16  1  0  0  0
 12  7  1  0  0  0
  1  5  1  0  0  0
  4  6  1  0  0  0
 11 13  1  0  0  0
M  END
> <minimizedAffinity>
-6.28340

> <CNNscore>
0.4780306816

> <CNNaffinity>
5.2841167450

> <CNN_VS>
2.5259699821

> <CNNaffinity_variance>
0.1113912687

$$$$
[H]Sc1nnc(N([H])C(=O)N([H])N=C([H])c2c([H])c([H])c([H])c(OC([H])([H])[H])c2[H])s1


 23 24  0  0  0  0  0  0  0  0999 V2000
   -0.7064  -54.1652  -21.3405 N   0  0  0  0  0  0  0  0  0  0  0  0
   -0.7308  -53.1617  -20.3468 C   0  0  0  0  0  0  0  0  0  0  0  0
   -0.8115  -51.9537  -20.6815 O   0  0  0  0  0  0  0  0  0  0  0  0
   -0.6665  -53.4798  -18.9763 N   0  0  0  0  0  0  0  0  0  0  0  0
   -0.6388  -55.1656  -21.0401 H   0  0  0  0  0  0  0  0  0  0  0  0
   -0.5998  -54.4651  -18.6760 H   0  0  0  0  0  0  0  0  0  0  0  0
   -0.6913  -52.4639  -17.9704 C   0  0  0  0  0  0  0  0  0  0  0  0
   -1.4874  -52.3365  -16.9125 N   0  0  0  0  0  0  0  0  0  0  0  0
   -1.3507  -51.3547  -16.1295 N   0  0  0  0  0  0  0  0  0  0  0  0
   -0.4100  -50.4488  -16.3640 C   0  0  0  0  0  0  0  0  0  0  0  0
   -0.0882  -49.0108  -15.3597 S   0  0  0  0  0  0  0  0  0  0  0  0
    0.2955  -51.0679  -17.7878 S   0  0  0  0  0  0  0  0  0  0  0  0
   -0.1253  -49.3248  -13.9734 H   0  0  0  0  0  0  0  0  0  0  0  0
    0.1758  -53.3701  -23.3767 C   0  0  0  0  0  0  0  0  0  0  0  0
   -0.7657  -53.9231  -22.6963 N   0  0  0  0  0  0  0  0  0  0  0  0
    0.9409  -53.2603  -27.0418 C   0  0  0  0  0  0  0  0  0  0  0  0
   -0.2299  -52.7062  -27.5140 C   0  0  0  0  0  0  0  0  0  0  0  0
   -1.2411  -52.3806  -26.6343 C   0  0  0  0  0  0  0  0  0  0  0  0
   -1.1168  -52.5945  -25.2783 C   0  0  0  0  0  0  0  0  0  0  0  0
    0.0453  -53.1446  -24.8085 C   0  0  0  0  0  0  0  0  0  0  0  0
    1.0512  -53.4680  -25.6877 C   0  0  0  0  0  0  0  0  0  0  0  0
    3.1244  -52.7991  -27.9969 C   0  0  0  0  0  0  0  0  0  0  0  0
    1.9689  -53.5963  -27.8932 O   0  0  0  0  0  0  0  0  0  0  0  0
 22 23  1  0  0  0
 23 16  1  0  0  0
 16 17  2  0  0  0
 17 18  1  0  0  0
 18 19  2  0  0  0
 19 20  1  0  0  0
 20 14  1  0  0  0
 14 15  2  0  0  0
 15  1  1  0  0  0
  1  2  1  0  0  0
  2  3  2  0  0  0
  2  4  1  0  0  0
  4  7  1  0  0  0
  7  8  2  0  0  0
  8  9  1  0  0  0
  9 10  2  0  0  0
 10 11  1  0  0  0
 10 12  1  0  0  0
 20 21  2  0  0  0
 21 16  1  0  0  0
 12  7  1  0  0  0
  1  5  1  0  0  0
  4  6  1  0  0  0
 11 13  1  0  0  0
M  END
> <minimizedAffinity>
-6.33299

> <CNNscore>
0.4718406498

> <CNNaffinity>
5.3034639359

> <CNN_VS>
2.5023899078

> <CNNaffinity_variance>
0.0750412568

$$$$
[H]Sc1nnc(N([H])C(=O)N([H])N=C([H])c2c([H])c([H])c([H])c(OC([H])([H])[H])c2[H])s1


 23 24  0  0  0  0  0  0  0  0999 V2000
   -0.8340  -53.5655  -19.5133 N   0  0  0  0  0  0  0  0  0  0  0  0
   -0.2281  -52.8118  -20.5429 C   0  0  0  0  0  0  0  0  0  0  0  0
   -0.4847  -51.5872  -20.6535 O   0  0  0  0  0  0  0  0  0  0  0  0
    0.6651  -53.4002  -21.4592 N   0  0  0  0  0  0  0  0  0  0  0  0
   -0.6065  -54.5845  -19.4388 H   0  0  0  0  0  0  0  0  0  0  0  0
    0.8918  -54.4047  -21.3891 H   0  0  0  0  0  0  0  0  0  0  0  0
    1.2784  -52.6371  -22.5014 C   0  0  0  0  0  0  0  0  0  0  0  0
    2.3484  -51.8483  -22.4582 N   0  0  0  0  0  0  0  0  0  0  0  0
    2.7396  -51.2513  -23.5005 N   0  0  0  0  0  0  0  0  0  0  0  0
    2.0804  -51.4124  -24.6407 C   0  0  0  0  0  0  0  0  0  0  0  0
    2.5014  -50.6442  -26.1940 S   0  0  0  0  0  0  0  0  0  0  0  0
    0.8424  -52.4807  -24.1571 S   0  0  0  0  0  0  0  0  0  0  0  0
    3.9025  -50.6858  -26.4330 H   0  0  0  0  0  0  0  0  0  0  0  0
   -1.3893  -52.7030  -17.3911 C   0  0  0  0  0  0  0  0  0  0  0  0
   -1.7152  -53.0530  -18.5854 N   0  0  0  0  0  0  0  0  0  0  0  0
   -2.9874  -50.6385  -14.7051 C   0  0  0  0  0  0  0  0  0  0  0  0
   -4.2573  -51.1756  -14.7145 C   0  0  0  0  0  0  0  0  0  0  0  0
   -4.5673  -52.1945  -15.5909 C   0  0  0  0  0  0  0  0  0  0  0  0
   -3.6345  -52.7006  -16.4705 C   0  0  0  0  0  0  0  0  0  0  0  0
   -2.3736  -52.1681  -16.4620 C   0  0  0  0  0  0  0  0  0  0  0  0
   -2.0677  -51.1527  -15.5875 C   0  0  0  0  0  0  0  0  0  0  0  0
   -1.3246  -49.1436  -13.7603 C   0  0  0  0  0  0  0  0  0  0  0  0
   -2.6462  -49.6212  -13.8431 O   0  0  0  0  0  0  0  0  0  0  0  0
 22 23  1  0  0  0
 23 16  1  0  0  0
 16 17  2  0  0  0
 17 18  1  0  0  0
 18 19  2  0  0  0
 19 20  1  0  0  0
 20 14  1  0  0  0
 14 15  2  0  0  0
 15  1  1  0  0  0
  1  2  1  0  0  0
  2  3  2  0  0  0
  2  4  1  0  0  0
  4  7  1  0  0  0
  7  8  2  0  0  0
  8  9  1  0  0  0
  9 10  2  0  0  0
 10 11  1  0  0  0
 10 12  1  0  0  0
 20 21  2  0  0  0
 21 16  1  0  0  0
 12  7  1  0  0  0
  1  5  1  0  0  0
  4  6  1  0  0  0
 11 13  1  0  0  0
M  END
> <minimizedAffinity>
-5.02921

> <CNNscore>
0.4533216059

> <CNNaffinity>
4.8786573410

> <CNN_VS>
2.2116007805

> <CNNaffinity_variance>
0.0738670975

$$$$
[H]Sc1nnc(N([H])C(=O)N([H])N=C([H])c2c([H])c([H])c([H])c(OC([H])([H])[H])c2[H])s1


 23 24  0  0  0  0  0  0  0  0999 V2000
   -0.5058  -53.7358  -22.0513 N   0  0  0  0  0  0  0  0  0  0  0  0
   -0.1645  -53.1372  -20.8182 C   0  0  0  0  0  0  0  0  0  0  0  0
    0.9037  -52.4845  -20.7158 O   0  0  0  0  0  0  0  0  0  0  0  0
   -0.9965  -53.2526  -19.6876 N   0  0  0  0  0  0  0  0  0  0  0  0
   -1.4004  -54.2753  -22.1151 H   0  0  0  0  0  0  0  0  0  0  0  0
   -1.8795  -53.7839  -19.7466 H   0  0  0  0  0  0  0  0  0  0  0  0
   -0.6510  -52.6467  -18.4394 C   0  0  0  0  0  0  0  0  0  0  0  0
   -0.9468  -53.0286  -17.2002 N   0  0  0  0  0  0  0  0  0  0  0  0
   -0.5443  -52.3501  -16.2135 N   0  0  0  0  0  0  0  0  0  0  0  0
    0.1754  -51.2538  -16.4153 C   0  0  0  0  0  0  0  0  0  0  0  0
    0.8170  -50.1900  -15.1360 S   0  0  0  0  0  0  0  0  0  0  0  0
    0.2602  -51.2245  -18.1183 S   0  0  0  0  0  0  0  0  0  0  0  0
    1.3671  -50.9410  -14.0612 H   0  0  0  0  0  0  0  0  0  0  0  0
    0.0415  -52.8468  -24.1647 C   0  0  0  0  0  0  0  0  0  0  0  0
    0.2618  -53.6618  -23.1939 N   0  0  0  0  0  0  0  0  0  0  0  0
    1.1668  -52.7441  -27.7359 C   0  0  0  0  0  0  0  0  0  0  0  0
    2.5334  -52.7793  -27.5571 C   0  0  0  0  0  0  0  0  0  0  0  0
    3.0597  -52.8355  -26.2835 C   0  0  0  0  0  0  0  0  0  0  0  0
    2.2512  -52.8579  -25.1672 C   0  0  0  0  0  0  0  0  0  0  0  0
    0.8944  -52.8231  -25.3437 C   0  0  0  0  0  0  0  0  0  0  0  0
    0.3729  -52.7670  -26.6143 C   0  0  0  0  0  0  0  0  0  0  0  0
   -0.7831  -52.5988  -29.1745 C   0  0  0  0  0  0  0  0  0  0  0  0
    0.6100  -52.6878  -28.9935 O   0  0  0  0  0  0  0  0  0  0  0  0
 22 23  1  0  0  0
 23 16  1  0  0  0
 16 17  2  0  0  0
 17 18  1  0  0  0
 18 19  2  0  0  0
 19 20  1  0  0  0
 20 14  1  0  0  0
 14 15  2  0  0  0
 15  1  1  0  0  0
  1  2  1  0  0  0
  2  3  2  0  0  0
  2  4  1  0  0  0
  4  7  1  0  0  0
  7  8  2  0  0  0
  8  9  1  0  0  0
  9 10  2  0  0  0
 10 11  1  0  0  0
 10 12  1  0  0  0
 20 21  2  0  0  0
 21 16  1  0  0  0
 12  7  1  0  0  0
  1  5  1  0  0  0
  4  6  1  0  0  0
 11 13  1  0  0  0
M  END
> <minimizedAffinity>
-6.36965

> <CNNscore>
0.4088523388

> <CNNaffinity>
5.3864707947

> <CNN_VS>
2.2022712231

> <CNNaffinity_variance>
0.0794477239

$$$$
[H]c1c([H])c(-c2c([H])c(SC([H])([H])[H])n([H])c2-c2c([H])c([H])c(S(=O)(=O)C([H])([H])[H])c([H])c2[H])c([H])c([H])c1F


 25 27  0  0  0  0  0  0  0  0999 V2000
   -0.3768  -53.6063  -22.5190 C   0  0  0  0  0  0  0  0  0  0  0  0
    0.4207  -52.4713  -22.7288 C   0  0  0  0  0  0  0  0  0  0  0  0
    0.5914  -51.8340  -21.5249 C   0  0  0  0  0  0  0  0  0  0  0  0
   -0.0917  -52.5685  -20.5926 C   0  0  0  0  0  0  0  0  0  0  0  0
   -0.6653  -53.6271  -21.2083 N   0  0  0  0  0  0  0  0  0  0  0  0
   -1.2466  -54.3631  -20.7648 H   0  0  0  0  0  0  0  0  0  0  0  0
    1.3489  -50.6188  -21.2856 C   0  0  0  0  0  0  0  0  0  0  0  0
    2.7154  -50.6672  -21.1004 C   0  0  0  0  0  0  0  0  0  0  0  0
    3.4594  -49.5574  -20.8718 C   0  0  0  0  0  0  0  0  0  0  0  0
    2.8574  -48.3256  -20.8173 C   0  0  0  0  0  0  0  0  0  0  0  0
    3.6366  -47.2554  -20.5876 F   0  0  0  0  0  0  0  0  0  0  0  0
    1.4842  -48.2449  -20.9999 C   0  0  0  0  0  0  0  0  0  0  0  0
    0.7430  -49.3763  -21.2305 C   0  0  0  0  0  0  0  0  0  0  0  0
   -0.1728  -52.2369  -19.1834 C   0  0  0  0  0  0  0  0  0  0  0  0
    0.6621  -51.2445  -18.6587 C   0  0  0  0  0  0  0  0  0  0  0  0
    0.5253  -50.9816  -17.3127 C   0  0  0  0  0  0  0  0  0  0  0  0
   -0.3630  -51.6266  -16.4886 C   0  0  0  0  0  0  0  0  0  0  0  0
   -1.1819  -52.6042  -17.0163 C   0  0  0  0  0  0  0  0  0  0  0  0
   -1.0714  -52.8877  -18.3432 C   0  0  0  0  0  0  0  0  0  0  0  0
   -0.5124  -51.2640  -14.7896 S   0  0  0  0  0  0  0  0  0  0  0  0
    0.5227  -52.3952  -13.8803 C   0  0  0  0  0  0  0  0  0  0  0  0
   -1.9470  -51.5014  -14.3647 O   0  0  0  0  0  0  0  0  0  0  0  0
   -0.1988  -49.8389  -14.5045 O   0  0  0  0  0  0  0  0  0  0  0  0
   -0.1936  -54.5670  -25.3402 C   0  0  0  0  0  0  0  0  0  0  0  0
   -0.9281  -54.8050  -23.7082 S   0  0  0  0  0  0  0  0  0  0  0  0
 24 25  1  0  0  0
 25  1  1  0  0  0
  1  2  2  0  0  0
  2  3  1  0  0  0
  3  7  1  0  0  0
  7  8  2  0  0  0
  8  9  1  0  0  0
  9 10  2  0  0  0
 10 11  1  0  0  0
 10 12  1  0  0  0
 12 13  2  0  0  0
  3  4  2  0  0  0
  4 14  1  0  0  0
 14 15  2  0  0  0
 15 16  1  0  0  0
 16 17  2  0  0  0
 17 20  1  0  0  0
 20 21  1  0  0  0
 20 22  2  0  0  0
 20 23  2  0  0  0
 17 18  1  0  0  0
 18 19  2  0  0  0
  4  5  1  0  0  0
  5  1  1  0  0  0
 13  7  1  0  0  0
 19 14  1  0  0  0
  5  6  1  0  0  0
M  END
> <minimizedAffinity>
-6.42789

> <CNNscore>
0.5996446609

> <CNNaffinity>
5.9962897301

> <CNN_VS>
3.5956430435

> <CNNaffinity_variance>
0.0610381067

$$$$
[H]c1c([H])c(-c2c([H])c(SC([H])([H])[H])n([H])c2-c2c([H])c([H])c(S(=O)(=O)C([H])([H])[H])c([H])c2[H])c([H])c([H])c1F


 25 27  0  0  0  0  0  0  0  0999 V2000
   -0.3462  -53.2611  -21.4332 C   0  0  0  0  0  0  0  0  0  0  0  0
    0.2037  -52.2191  -22.1948 C   0  0  0  0  0  0  0  0  0  0  0  0
    0.8396  -51.3499  -21.3434 C   0  0  0  0  0  0  0  0  0  0  0  0
    0.6809  -51.8531  -20.0797 C   0  0  0  0  0  0  0  0  0  0  0  0
   -0.0327  -52.9994  -20.1546 N   0  0  0  0  0  0  0  0  0  0  0  0
   -0.3128  -53.6090  -19.3633 H   0  0  0  0  0  0  0  0  0  0  0  0
    1.5440  -50.1346  -21.7103 C   0  0  0  0  0  0  0  0  0  0  0  0
    1.0777  -48.9016  -21.3027 C   0  0  0  0  0  0  0  0  0  0  0  0
    1.7032  -47.7431  -21.6253 C   0  0  0  0  0  0  0  0  0  0  0  0
    2.8456  -47.7673  -22.3850 C   0  0  0  0  0  0  0  0  0  0  0  0
    3.4291  -46.5934  -22.6793 F   0  0  0  0  0  0  0  0  0  0  0  0
    3.3391  -48.9927  -22.8098 C   0  0  0  0  0  0  0  0  0  0  0  0
    2.6959  -50.1578  -22.4761 C   0  0  0  0  0  0  0  0  0  0  0  0
    1.2004  -51.2325  -18.8767 C   0  0  0  0  0  0  0  0  0  0  0  0
    0.3215  -50.5971  -17.9930 C   0  0  0  0  0  0  0  0  0  0  0  0
    0.8875  -50.0339  -16.8697 C   0  0  0  0  0  0  0  0  0  0  0  0
    2.2302  -50.0656  -16.5857 C   0  0  0  0  0  0  0  0  0  0  0  0
    3.0886  -50.6947  -17.4643 C   0  0  0  0  0  0  0  0  0  0  0  0
    2.5607  -51.2614  -18.5838 C   0  0  0  0  0  0  0  0  0  0  0  0
    2.9111  -49.3459  -15.1509 S   0  0  0  0  0  0  0  0  0  0  0  0
    3.7823  -47.8644  -15.6243 C   0  0  0  0  0  0  0  0  0  0  0  0
    3.9181  -50.3076  -14.5540 O   0  0  0  0  0  0  0  0  0  0  0  0
    1.8720  -49.0985  -14.1167 O   0  0  0  0  0  0  0  0  0  0  0  0
   -1.0745  -54.9905  -23.7557 C   0  0  0  0  0  0  0  0  0  0  0  0
   -1.2806  -54.6646  -21.9919 S   0  0  0  0  0  0  0  0  0  0  0  0
 24 25  1  0  0  0
 25  1  1  0  0  0
  1  2  2  0  0  0
  2  3  1  0  0  0
  3  7  1  0  0  0
  7  8  2  0  0  0
  8  9  1  0  0  0
  9 10  2  0  0  0
 10 11  1  0  0  0
 10 12  1  0  0  0
 12 13  2  0  0  0
  3  4  2  0  0  0
  4 14  1  0  0  0
 14 15  2  0  0  0
 15 16  1  0  0  0
 16 17  2  0  0  0
 17 20  1  0  0  0
 20 21  1  0  0  0
 20 22  2  0  0  0
 20 23  2  0  0  0
 17 18  1  0  0  0
 18 19  2  0  0  0
  4  5  1  0  0  0
  5  1  1  0  0  0
 13  7  1  0  0  0
 19 14  1  0  0  0
  5  6  1  0  0  0
M  END
> <minimizedAffinity>
-5.77413

> <CNNscore>
0.4918427765

> <CNNaffinity>
5.8743019104

> <CNN_VS>
2.8892328739

> <CNNaffinity_variance>
0.1624353230

$$$$
[H]c1c([H])c(-c2c([H])c(SC([H])([H])[H])n([H])c2-c2c([H])c([H])c(S(=O)(=O)C([H])([H])[H])c([H])c2[H])c([H])c([H])c1F


 25 27  0  0  0  0  0  0  0  0999 V2000
    0.2219  -53.2739  -22.1229 C   0  0  0  0  0  0  0  0  0  0  0  0
   -0.3961  -53.6741  -23.3172 C   0  0  0  0  0  0  0  0  0  0  0  0
    0.1517  -52.9545  -24.3501 C   0  0  0  0  0  0  0  0  0  0  0  0
    1.0908  -52.1263  -23.7956 C   0  0  0  0  0  0  0  0  0  0  0  0
    1.1179  -52.3328  -22.4593 N   0  0  0  0  0  0  0  0  0  0  0  0
    1.7269  -51.8538  -21.7695 H   0  0  0  0  0  0  0  0  0  0  0  0
   -0.1956  -53.0522  -25.7563 C   0  0  0  0  0  0  0  0  0  0  0  0
   -1.1702  -52.2393  -26.2979 C   0  0  0  0  0  0  0  0  0  0  0  0
   -1.5265  -52.3000  -27.6043 C   0  0  0  0  0  0  0  0  0  0  0  0
   -0.9113  -53.1945  -28.4435 C   0  0  0  0  0  0  0  0  0  0  0  0
   -1.2990  -53.2178  -29.7298 F   0  0  0  0  0  0  0  0  0  0  0  0
    0.0730  -54.0256  -27.9279 C   0  0  0  0  0  0  0  0  0  0  0  0
    0.4239  -53.9536  -26.6033 C   0  0  0  0  0  0  0  0  0  0  0  0
    1.9040  -51.1881  -24.5443 C   0  0  0  0  0  0  0  0  0  0  0  0
    2.2798  -49.9764  -23.9545 C   0  0  0  0  0  0  0  0  0  0  0  0
    3.0556  -49.1378  -24.7254 C   0  0  0  0  0  0  0  0  0  0  0  0
    3.4641  -49.4256  -26.0040 C   0  0  0  0  0  0  0  0  0  0  0  0
    3.0876  -50.6235  -26.5765 C   0  0  0  0  0  0  0  0  0  0  0  0
    2.3209  -51.4745  -25.8409 C   0  0  0  0  0  0  0  0  0  0  0  0
    4.4504  -48.3418  -26.9488 S   0  0  0  0  0  0  0  0  0  0  0  0
    3.8551  -46.6798  -26.7011 C   0  0  0  0  0  0  0  0  0  0  0  0
    4.2823  -48.6829  -28.4152 O   0  0  0  0  0  0  0  0  0  0  0  0
    5.8936  -48.4919  -26.6245 O   0  0  0  0  0  0  0  0  0  0  0  0
   -0.0410  -52.5346  -19.2420 C   0  0  0  0  0  0  0  0  0  0  0  0
   -0.0819  -53.8553  -20.4723 S   0  0  0  0  0  0  0  0  0  0  0  0
 24 25  1  0  0  0
 25  1  1  0  0  0
  1  2  2  0  0  0
  2  3  1  0  0  0
  3  7  1  0  0  0
  7  8  2  0  0  0
  8  9  1  0  0  0
  9 10  2  0  0  0
 10 11  1  0  0  0
 10 12  1  0  0  0
 12 13  2  0  0  0
  3  4  2  0  0  0
  4 14  1  0  0  0
 14 15  2  0  0  0
 15 16  1  0  0  0
 16 17  2  0  0  0
 17 20  1  0  0  0
 20 21  1  0  0  0
 20 22  2  0  0  0
 20 23  2  0  0  0
 17 18  1  0  0  0
 18 19  2  0  0  0
  4  5  1  0  0  0
  5  1  1  0  0  0
 13  7  1  0  0  0
 19 14  1  0  0  0
  5  6  1  0  0  0
M  END
> <minimizedAffinity>
-7.49028

> <CNNscore>
0.4138627648

> <CNNaffinity>
6.1296644211

> <CNN_VS>
2.5368399620

> <CNNaffinity_variance>
0.1544831097

$$$$
[H]c1c([H])c(-c2c([H])c(SC([H])([H])[H])n([H])c2-c2c([H])c([H])c(S(=O)(=O)C([H])([H])[H])c([H])c2[H])c([H])c([H])c1F


 25 27  0  0  0  0  0  0  0  0999 V2000
    0.0285  -54.7953  -25.0875 C   0  0  0  0  0  0  0  0  0  0  0  0
   -0.3376  -54.4378  -23.7812 C   0  0  0  0  0  0  0  0  0  0  0  0
    0.3858  -53.3292  -23.4172 C   0  0  0  0  0  0  0  0  0  0  0  0
    1.1826  -53.0135  -24.4853 C   0  0  0  0  0  0  0  0  0  0  0  0
    0.9536  -53.9042  -25.4768 N   0  0  0  0  0  0  0  0  0  0  0  0
    1.4068  -53.9246  -26.4097 H   0  0  0  0  0  0  0  0  0  0  0  0
    0.3192  -52.6272  -22.1482 C   0  0  0  0  0  0  0  0  0  0  0  0
    0.4544  -53.3122  -20.9580 C   0  0  0  0  0  0  0  0  0  0  0  0
    0.3959  -52.6960  -19.7520 C   0  0  0  0  0  0  0  0  0  0  0  0
    0.1957  -51.3404  -19.6819 C   0  0  0  0  0  0  0  0  0  0  0  0
    0.1445  -50.7753  -18.4640 F   0  0  0  0  0  0  0  0  0  0  0  0
    0.0563  -50.6241  -20.8622 C   0  0  0  0  0  0  0  0  0  0  0  0
    0.1175  -51.2605  -22.0762 C   0  0  0  0  0  0  0  0  0  0  0  0
    2.1136  -51.9024  -24.5162 C   0  0  0  0  0  0  0  0  0  0  0  0
    1.7626  -50.7261  -25.1872 C   0  0  0  0  0  0  0  0  0  0  0  0
    2.6963  -49.7126  -25.1702 C   0  0  0  0  0  0  0  0  0  0  0  0
    3.9159  -49.7996  -24.5461 C   0  0  0  0  0  0  0  0  0  0  0  0
    4.2524  -50.9646  -23.8872 C   0  0  0  0  0  0  0  0  0  0  0  0
    3.3514  -51.9851  -23.8853 C   0  0  0  0  0  0  0  0  0  0  0  0
    5.0715  -48.4940  -24.5409 S   0  0  0  0  0  0  0  0  0  0  0  0
    5.7330  -48.3353  -22.8932 C   0  0  0  0  0  0  0  0  0  0  0  0
    4.3520  -47.2047  -24.8800 O   0  0  0  0  0  0  0  0  0  0  0  0
    6.1267  -48.6930  -25.5694 O   0  0  0  0  0  0  0  0  0  0  0  0
   -1.1757  -57.5276  -25.0819 C   0  0  0  0  0  0  0  0  0  0  0  0
   -0.5727  -56.1448  -26.0737 S   0  0  0  0  0  0  0  0  0  0  0  0
 24 25  1  0  0  0
 25  1  1  0  0  0
  1  2  2  0  0  0
  2  3  1  0  0  0
  3  7  1  0  0  0
  7  8  2  0  0  0
  8  9  1  0  0  0
  9 10  2  0  0  0
 10 11  1  0  0  0
 10 12  1  0  0  0
 12 13  2  0  0  0
  3  4  2  0  0  0
  4 14  1  0  0  0
 14 15  2  0  0  0
 15 16  1  0  0  0
 16 17  2  0  0  0
 17 20  1  0  0  0
 20 21  1  0  0  0
 20 22  2  0  0  0
 20 23  2  0  0  0
 17 18  1  0  0  0
 18 19  2  0  0  0
  4  5  1  0  0  0
  5  1  1  0  0  0
 13  7  1  0  0  0
 19 14  1  0  0  0
  5  6  1  0  0  0
M  END
> <minimizedAffinity>
-3.87806

> <CNNscore>
0.3511196971

> <CNNaffinity>
6.1182847023

> <CNN_VS>
2.1482503414

> <CNNaffinity_variance>
0.4921205938

$$$$
[H]c1c([H])c(-c2c([H])c(SC([H])([H])[H])n([H])c2-c2c([H])c([H])c(S(=O)(=O)C([H])([H])[H])c([H])c2[H])c([H])c([H])c1F


 25 27  0  0  0  0  0  0  0  0999 V2000
   -0.7359  -52.7484  -28.6324 C   0  0  0  0  0  0  0  0  0  0  0  0
   -1.1328  -53.3536  -27.4305 C   0  0  0  0  0  0  0  0  0  0  0  0
   -0.3820  -52.8237  -26.4106 C   0  0  0  0  0  0  0  0  0  0  0  0
    0.4618  -51.9078  -26.9804 C   0  0  0  0  0  0  0  0  0  0  0  0
    0.2341  -51.8772  -28.3132 N   0  0  0  0  0  0  0  0  0  0  0  0
    0.7178  -51.2823  -29.0119 H   0  0  0  0  0  0  0  0  0  0  0  0
   -0.4658  -53.1661  -25.0023 C   0  0  0  0  0  0  0  0  0  0  0  0
   -0.5039  -54.4857  -24.6007 C   0  0  0  0  0  0  0  0  0  0  0  0
   -0.5848  -54.8486  -23.2972 C   0  0  0  0  0  0  0  0  0  0  0  0
   -0.6320  -53.8883  -22.3182 C   0  0  0  0  0  0  0  0  0  0  0  0
   -0.7125  -54.2972  -21.0408 F   0  0  0  0  0  0  0  0  0  0  0  0
   -0.5954  -52.5523  -22.6911 C   0  0  0  0  0  0  0  0  0  0  0  0
   -0.5135  -52.1989  -24.0144 C   0  0  0  0  0  0  0  0  0  0  0  0
    1.4335  -51.1188  -26.2487 C   0  0  0  0  0  0  0  0  0  0  0  0
    2.7259  -51.6191  -26.0578 C   0  0  0  0  0  0  0  0  0  0  0  0
    3.5950  -50.8114  -25.3566 C   0  0  0  0  0  0  0  0  0  0  0  0
    3.2634  -49.5784  -24.8525 C   0  0  0  0  0  0  0  0  0  0  0  0
    1.9856  -49.0943  -25.0462 C   0  0  0  0  0  0  0  0  0  0  0  0
    1.1028  -49.8682  -25.7352 C   0  0  0  0  0  0  0  0  0  0  0  0
    4.3915  -48.5808  -23.9737 S   0  0  0  0  0  0  0  0  0  0  0  0
    5.3815  -47.6803  -25.1514 C   0  0  0  0  0  0  0  0  0  0  0  0
    5.3167  -49.4771  -23.1764 O   0  0  0  0  0  0  0  0  0  0  0  0
    3.6968  -47.6921  -23.0050 O   0  0  0  0  0  0  0  0  0  0  0  0
   -0.0559  -53.5060  -31.4393 C   0  0  0  0  0  0  0  0  0  0  0  0
   -1.3523  -53.0390  -30.2727 S   0  0  0  0  0  0  0  0  0  0  0  0
 24 25  1  0  0  0
 25  1  1  0  0  0
  1  2  2  0  0  0
  2  3  1  0  0  0
  3  7  1  0  0  0
  7  8  2  0  0  0
  8  9  1  0  0  0
  9 10  2  0  0  0
 10 11  1  0  0  0
 10 12  1  0  0  0
 12 13  2  0  0  0
  3  4  2  0  0  0
  4 14  1  0  0  0
 14 15  2  0  0  0
 15 16  1  0  0  0
 16 17  2  0  0  0
 17 20  1  0  0  0
 20 21  1  0  0  0
 20 22  2  0  0  0
 20 23  2  0  0  0
 17 18  1  0  0  0
 18 19  2  0  0  0
  4  5  1  0  0  0
  5  1  1  0  0  0
 13  7  1  0  0  0
 19 14  1  0  0  0
  5  6  1  0  0  0
M  END
> <minimizedAffinity>
0.07425

> <CNNscore>
0.3180605769

> <CNNaffinity>
5.8498735428

> <CNN_VS>
1.8606141806

> <CNNaffinity_variance>
0.2810399532

$$$$
[H]c1c([H])c(-c2c([H])c(SC([H])([H])[H])n([H])c2-c2c([H])c([H])c(S(=O)(=O)C([H])([H])[H])c([H])c2[H])c([H])c([H])c1F


 25 27  0  0  0  0  0  0  0  0999 V2000
   -0.2036  -54.4437  -23.9143 C   0  0  0  0  0  0  0  0  0  0  0  0
   -0.5717  -54.2203  -22.5791 C   0  0  0  0  0  0  0  0  0  0  0  0
    0.1478  -53.1515  -22.1049 C   0  0  0  0  0  0  0  0  0  0  0  0
    0.9442  -52.7275  -23.1351 C   0  0  0  0  0  0  0  0  0  0  0  0
    0.7188  -53.5149  -24.2113 N   0  0  0  0  0  0  0  0  0  0  0  0
    1.1727  -53.4400  -25.1411 H   0  0  0  0  0  0  0  0  0  0  0  0
    0.0781  -52.5808  -20.7719 C   0  0  0  0  0  0  0  0  0  0  0  0
    0.2986  -51.2335  -20.5715 C   0  0  0  0  0  0  0  0  0  0  0  0
    0.2457  -50.6611  -19.3439 C   0  0  0  0  0  0  0  0  0  0  0  0
   -0.0358  -51.4265  -18.2404 C   0  0  0  0  0  0  0  0  0  0  0  0
   -0.0765  -50.8141  -17.0451 F   0  0  0  0  0  0  0  0  0  0  0  0
   -0.2624  -52.7849  -18.4101 C   0  0  0  0  0  0  0  0  0  0  0  0
   -0.2057  -53.3514  -19.6585 C   0  0  0  0  0  0  0  0  0  0  0  0
    1.8715  -51.6159  -23.0534 C   0  0  0  0  0  0  0  0  0  0  0  0
    1.5436  -50.3976  -23.6577 C   0  0  0  0  0  0  0  0  0  0  0  0
    2.4720  -49.3865  -23.5346 C   0  0  0  0  0  0  0  0  0  0  0  0
    3.6656  -49.5140  -22.8685 C   0  0  0  0  0  0  0  0  0  0  0  0
    3.9795  -50.7204  -22.2762 C   0  0  0  0  0  0  0  0  0  0  0  0
    3.0830  -51.7396  -22.3796 C   0  0  0  0  0  0  0  0  0  0  0  0
    4.8152  -48.2106  -22.7287 S   0  0  0  0  0  0  0  0  0  0  0  0
    5.1023  -47.5374  -24.3542 C   0  0  0  0  0  0  0  0  0  0  0  0
    6.1271  -48.7702  -22.2180 O   0  0  0  0  0  0  0  0  0  0  0  0
    4.3637  -47.1852  -21.7512 O   0  0  0  0  0  0  0  0  0  0  0  0
    0.0768  -55.6964  -26.6101 C   0  0  0  0  0  0  0  0  0  0  0  0
   -0.7996  -55.6891  -25.0317 S   0  0  0  0  0  0  0  0  0  0  0  0
 24 25  1  0  0  0
 25  1  1  0  0  0
  1  2  2  0  0  0
  2  3  1  0  0  0
  3  7  1  0  0  0
  7  8  2  0  0  0
  8  9  1  0  0  0
  9 10  2  0  0  0
 10 11  1  0  0  0
 10 12  1  0  0  0
 12 13  2  0  0  0
  3  4  2  0  0  0
  4 14  1  0  0  0
 14 15  2  0  0  0
 15 16  1  0  0  0
 16 17  2  0  0  0
 17 20  1  0  0  0
 20 21  1  0  0  0
 20 22  2  0  0  0
 20 23  2  0  0  0
 17 18  1  0  0  0
 18 19  2  0  0  0
  4  5  1  0  0  0
  5  1  1  0  0  0
 13  7  1  0  0  0
 19 14  1  0  0  0
  5  6  1  0  0  0
M  END
> <minimizedAffinity>
-5.12171

> <CNNscore>
0.2903000712

> <CNNaffinity>
6.1306381226

> <CNN_VS>
1.7797247171

> <CNNaffinity_variance>
0.3459079862

$$$$
[H]c1c([H])c(-c2c([H])c(SC([H])([H])[H])n([H])c2-c2c([H])c([H])c(S(=O)(=O)C([H])([H])[H])c([H])c2[H])c([H])c([H])c1F


 25 27  0  0  0  0  0  0  0  0999 V2000
    0.3944  -52.3910  -25.3401 C   0  0  0  0  0  0  0  0  0  0  0  0
   -0.1826  -52.9093  -24.1711 C   0  0  0  0  0  0  0  0  0  0  0  0
    0.3943  -52.2878  -23.0915 C   0  0  0  0  0  0  0  0  0  0  0  0
    1.3108  -51.4025  -23.5929 C   0  0  0  0  0  0  0  0  0  0  0  0
    1.2958  -51.4791  -24.9431 N   0  0  0  0  0  0  0  0  0  0  0  0
    1.8793  -50.9306  -25.6024 H   0  0  0  0  0  0  0  0  0  0  0  0
    0.0920  -52.5222  -21.6910 C   0  0  0  0  0  0  0  0  0  0  0  0
   -1.1389  -53.0163  -21.3107 C   0  0  0  0  0  0  0  0  0  0  0  0
   -1.4627  -53.2468  -20.0147 C   0  0  0  0  0  0  0  0  0  0  0  0
   -0.5513  -52.9882  -19.0222 C   0  0  0  0  0  0  0  0  0  0  0  0
   -0.9187  -53.2321  -17.7530 F   0  0  0  0  0  0  0  0  0  0  0  0
    0.6955  -52.4907  -19.3737 C   0  0  0  0  0  0  0  0  0  0  0  0
    1.0102  -52.2619  -20.6894 C   0  0  0  0  0  0  0  0  0  0  0  0
    2.1496  -50.5406  -22.7830 C   0  0  0  0  0  0  0  0  0  0  0  0
    1.6342  -49.3340  -22.2977 C   0  0  0  0  0  0  0  0  0  0  0  0
    2.4886  -48.5700  -21.5322 C   0  0  0  0  0  0  0  0  0  0  0  0
    3.7803  -48.9254  -21.2329 C   0  0  0  0  0  0  0  0  0  0  0  0
    4.2789  -50.1178  -21.7170 C   0  0  0  0  0  0  0  0  0  0  0  0
    3.4599  -50.8958  -22.4766 C   0  0  0  0  0  0  0  0  0  0  0  0
    4.8321  -47.9354  -20.2563 S   0  0  0  0  0  0  0  0  0  0  0  0
    3.8433  -47.1121  -19.0225 C   0  0  0  0  0  0  0  0  0  0  0  0
    5.4576  -46.8729  -21.1366 O   0  0  0  0  0  0  0  0  0  0  0  0
    5.9427  -48.7306  -19.6691 O   0  0  0  0  0  0  0  0  0  0  0  0
    0.2190  -54.5861  -27.3565 C   0  0  0  0  0  0  0  0  0  0  0  0
    0.0462  -52.8192  -27.0285 S   0  0  0  0  0  0  0  0  0  0  0  0
 24 25  1  0  0  0
 25  1  1  0  0  0
  1  2  2  0  0  0
  2  3  1  0  0  0
  3  7  1  0  0  0
  7  8  2  0  0  0
  8  9  1  0  0  0
  9 10  2  0  0  0
 10 11  1  0  0  0
 10 12  1  0  0  0
 12 13  2  0  0  0
  3  4  2  0  0  0
  4 14  1  0  0  0
 14 15  2  0  0  0
 15 16  1  0  0  0
 16 17  2  0  0  0
 17 20  1  0  0  0
 20 21  1  0  0  0
 20 22  2  0  0  0
 20 23  2  0  0  0
 17 18  1  0  0  0
 18 19  2  0  0  0
  4  5  1  0  0  0
  5  1  1  0  0  0
 13  7  1  0  0  0
 19 14  1  0  0  0
  5  6  1  0  0  0
M  END
> <minimizedAffinity>
-6.39490

> <CNNscore>
0.2214903980

> <CNNaffinity>
5.9119105339

> <CNN_VS>
1.3094314337

> <CNNaffinity_variance>
0.1047533154

$$$$
[H]c1c([H])c(-c2c([H])c(SC([H])([H])[H])n([H])c2-c2c([H])c([H])c(S(=O)(=O)C([H])([H])[H])c([H])c2[H])c([H])c([H])c1F


 25 27  0  0  0  0  0  0  0  0999 V2000
    0.7242  -52.9520  -26.8015 C   0  0  0  0  0  0  0  0  0  0  0  0
   -0.1327  -53.4139  -25.7913 C   0  0  0  0  0  0  0  0  0  0  0  0
    0.3304  -52.9496  -24.5852 C   0  0  0  0  0  0  0  0  0  0  0  0
    1.4541  -52.2144  -24.8540 C   0  0  0  0  0  0  0  0  0  0  0  0
    1.6735  -52.2278  -26.1884 N   0  0  0  0  0  0  0  0  0  0  0  0
    2.4486  -51.7597  -26.6947 H   0  0  0  0  0  0  0  0  0  0  0  0
   -0.2563  -53.1897  -23.2792 C   0  0  0  0  0  0  0  0  0  0  0  0
   -0.4644  -52.1472  -22.3995 C   0  0  0  0  0  0  0  0  0  0  0  0
   -1.0066  -52.3282  -21.1704 C   0  0  0  0  0  0  0  0  0  0  0  0
   -1.3720  -53.5851  -20.7587 C   0  0  0  0  0  0  0  0  0  0  0  0
   -1.9046  -53.7141  -19.5319 F   0  0  0  0  0  0  0  0  0  0  0  0
   -1.1751  -54.6538  -21.6216 C   0  0  0  0  0  0  0  0  0  0  0  0
   -0.6252  -54.4565  -22.8631 C   0  0  0  0  0  0  0  0  0  0  0  0
    2.2592  -51.5468  -23.8498 C   0  0  0  0  0  0  0  0  0  0  0  0
    3.2914  -52.2465  -23.2156 C   0  0  0  0  0  0  0  0  0  0  0  0
    4.0156  -51.5453  -22.2757 C   0  0  0  0  0  0  0  0  0  0  0  0
    3.7797  -50.2346  -21.9428 C   0  0  0  0  0  0  0  0  0  0  0  0
    2.7588  -49.5536  -22.5743 C   0  0  0  0  0  0  0  0  0  0  0  0
    2.0245  -50.2182  -23.5081 C   0  0  0  0  0  0  0  0  0  0  0  0
    4.7204  -49.3769  -20.7512 S   0  0  0  0  0  0  0  0  0  0  0  0
    3.9025  -49.5278  -19.1745 C   0  0  0  0  0  0  0  0  0  0  0  0
    4.7525  -47.9080  -21.1204 O   0  0  0  0  0  0  0  0  0  0  0  0
    6.1283  -49.8537  -20.7187 O   0  0  0  0  0  0  0  0  0  0  0  0
   -0.9998  -52.8537  -29.2374 C   0  0  0  0  0  0  0  0  0  0  0  0
    0.6253  -53.2389  -28.5516 S   0  0  0  0  0  0  0  0  0  0  0  0
 24 25  1  0  0  0
 25  1  1  0  0  0
  1  2  2  0  0  0
  2  3  1  0  0  0
  3  7  1  0  0  0
  7  8  2  0  0  0
  8  9  1  0  0  0
  9 10  2  0  0  0
 10 11  1  0  0  0
 10 12  1  0  0  0
 12 13  2  0  0  0
  3  4  2  0  0  0
  4 14  1  0  0  0
 14 15  2  0  0  0
 15 16  1  0  0  0
 16 17  2  0  0  0
 17 20  1  0  0  0
 20 21  1  0  0  0
 20 22  2  0  0  0
 20 23  2  0  0  0
 17 18  1  0  0  0
 18 19  2  0  0  0
  4  5  1  0  0  0
  5  1  1  0  0  0
 13  7  1  0  0  0
 19 14  1  0  0  0
  5  6  1  0  0  0
M  END
> <minimizedAffinity>
-7.31238

> <CNNscore>
0.2120825052

> <CNNaffinity>
5.9960880280

> <CNN_VS>
1.2716653347

> <CNNaffinity_variance>
0.1711482704

$$$$
[H]c1c([H])c(-c2c([H])c(SC([H])([H])[H])n([H])c2-c2c([H])c([H])c(S(=O)(=O)C([H])([H])[H])c([H])c2[H])c([H])c([H])c1F


 25 27  0  0  0  0  0  0  0  0999 V2000
    0.6144  -53.2497  -26.6291 C   0  0  0  0  0  0  0  0  0  0  0  0
   -0.1747  -53.6141  -25.5278 C   0  0  0  0  0  0  0  0  0  0  0  0
    0.3339  -53.0014  -24.4095 C   0  0  0  0  0  0  0  0  0  0  0  0
    1.4182  -52.2731  -24.8209 C   0  0  0  0  0  0  0  0  0  0  0  0
    1.5698  -52.4348  -26.1549 N   0  0  0  0  0  0  0  0  0  0  0  0
    2.3026  -52.0082  -26.7526 H   0  0  0  0  0  0  0  0  0  0  0  0
   -0.1776  -53.1043  -23.0547 C   0  0  0  0  0  0  0  0  0  0  0  0
   -0.6374  -54.3102  -22.5666 C   0  0  0  0  0  0  0  0  0  0  0  0
   -1.1252  -54.4491  -21.3095 C   0  0  0  0  0  0  0  0  0  0  0  0
   -1.1756  -53.3662  -20.4684 C   0  0  0  0  0  0  0  0  0  0  0  0
   -1.6679  -53.5534  -19.2323 F   0  0  0  0  0  0  0  0  0  0  0  0
   -0.7202  -52.1397  -20.9309 C   0  0  0  0  0  0  0  0  0  0  0  0
   -0.2289  -52.0132  -22.2058 C   0  0  0  0  0  0  0  0  0  0  0  0
    2.2513  -51.4730  -23.9445 C   0  0  0  0  0  0  0  0  0  0  0  0
    3.3354  -52.0677  -23.2902 C   0  0  0  0  0  0  0  0  0  0  0  0
    4.0835  -51.2438  -22.4772 C   0  0  0  0  0  0  0  0  0  0  0  0
    3.8237  -49.9097  -22.2848 C   0  0  0  0  0  0  0  0  0  0  0  0
    2.7516  -49.3329  -22.9349 C   0  0  0  0  0  0  0  0  0  0  0  0
    1.9925  -50.1201  -23.7456 C   0  0  0  0  0  0  0  0  0  0  0  0
    4.7956  -48.8957  -21.2516 S   0  0  0  0  0  0  0  0  0  0  0  0
    4.9031  -49.6664  -19.6478 C   0  0  0  0  0  0  0  0  0  0  0  0
    4.0977  -47.5619  -21.0815 O   0  0  0  0  0  0  0  0  0  0  0  0
    6.1285  -48.6219  -21.8506 O   0  0  0  0  0  0  0  0  0  0  0  0
   -0.7771  -52.7463  -29.2225 C   0  0  0  0  0  0  0  0  0  0  0  0
    0.4360  -53.7394  -28.3272 S   0  0  0  0  0  0  0  0  0  0  0  0
 24 25  1  0  0  0
 25  1  1  0  0  0
  1  2  2  0  0  0
  2  3  1  0  0  0
  3  7  1  0  0  0
  7  8  2  0  0  0
  8  9  1  0  0  0
  9 10  2  0  0  0
 10 11  1  0  0  0
 10 12  1  0  0  0
 12 13  2  0  0  0
  3  4  2  0  0  0
  4 14  1  0  0  0
 14 15  2  0  0  0
 15 16  1  0  0  0
 16 17  2  0  0  0
 17 20  1  0  0  0
 20 21  1  0  0  0
 20 22  2  0  0  0
 20 23  2  0  0  0
 17 18  1  0  0  0
 18 19  2  0  0  0
  4  5  1  0  0  0
  5  1  1  0  0  0
 13  7  1  0  0  0
 19 14  1  0  0  0
  5  6  1  0  0  0
M  END
> <minimizedAffinity>
-7.15689

> <CNNscore>
0.1950003952

> <CNNaffinity>
6.0085849762

> <CNN_VS>
1.1716763973

> <CNNaffinity_variance>
0.1396020651

$$$$
[H]OC([H])([H])C([H])([H])N([H])C(=O)[C@@]1([H])O[C@@]([H])(n2c([H])nc3c(N([H])C([H])([H])c4c([H])c([H])c([H])c([H])c4C([H])([H])[H])nc([H])nc32)[C@]([H])(O[H])[C@]1([H])O[H]


 36 39  0  0  0  0  0  0  0  0999 V2000
   -1.1567  -53.4212  -20.3122 C   0  0  0  0  0  0  0  0  0  0  0  0
   -1.4829  -54.5359  -21.0029 N   0  0  0  0  0  0  0  0  0  0  0  0
   -1.0824  -54.7383  -22.2657 C   0  0  0  0  0  0  0  0  0  0  0  0
   -0.3327  -53.8025  -22.8635 N   0  0  0  0  0  0  0  0  0  0  0  0
    0.0218  -52.6811  -22.2336 C   0  0  0  0  0  0  0  0  0  0  0  0
   -0.3826  -52.4707  -20.9504 C   0  0  0  0  0  0  0  0  0  0  0  0
    0.1036  -51.2802  -20.5527 N   0  0  0  0  0  0  0  0  0  0  0  0
    0.8075  -50.7318  -21.5573 C   0  0  0  0  0  0  0  0  0  0  0  0
    0.7538  -51.5941  -22.5837 N   0  0  0  0  0  0  0  0  0  0  0  0
    1.3760  -51.3902  -23.8508 C   0  0  0  0  0  0  0  0  0  0  0  0
    0.5629  -51.7379  -24.9267 O   0  0  0  0  0  0  0  0  0  0  0  0
    1.4695  -51.7564  -26.0038 C   0  0  0  0  0  0  0  0  0  0  0  0
    2.5416  -52.6776  -25.4326 C   0  0  0  0  0  0  0  0  0  0  0  0
    3.7109  -52.6448  -26.1460 O   0  0  0  0  0  0  0  0  0  0  0  0
    2.6845  -52.0802  -24.0379 C   0  0  0  0  0  0  0  0  0  0  0  0
    3.7515  -51.1692  -24.1096 O   0  0  0  0  0  0  0  0  0  0  0  0
    4.2164  -53.4890  -25.9694 H   0  0  0  0  0  0  0  0  0  0  0  0
    4.4095  -51.3424  -23.3832 H   0  0  0  0  0  0  0  0  0  0  0  0
    0.8735  -52.2569  -27.2315 C   0  0  0  0  0  0  0  0  0  0  0  0
    1.5671  -52.4079  -28.2610 O   0  0  0  0  0  0  0  0  0  0  0  0
   -0.5019  -52.5833  -27.2865 N   0  0  0  0  0  0  0  0  0  0  0  0
   -1.0972  -52.4659  -26.4433 H   0  0  0  0  0  0  0  0  0  0  0  0
   -1.1234  -53.0862  -28.5024 C   0  0  0  0  0  0  0  0  0  0  0  0
   -2.4403  -52.4197  -28.7215 C   0  0  0  0  0  0  0  0  0  0  0  0
   -3.2484  -52.6139  -27.5996 O   0  0  0  0  0  0  0  0  0  0  0  0
   -3.9073  -51.8656  -27.4850 H   0  0  0  0  0  0  0  0  0  0  0  0
   -1.6077  -53.2205  -18.9811 N   0  0  0  0  0  0  0  0  0  0  0  0
   -2.6298  -53.3662  -18.7914 H   0  0  0  0  0  0  0  0  0  0  0  0
   -0.7431  -52.8355  -17.9099 C   0  0  0  0  0  0  0  0  0  0  0  0
    0.7190  -50.5252  -17.1461 C   0  0  0  0  0  0  0  0  0  0  0  0
   -0.5979  -50.7759  -16.5460 C   0  0  0  0  0  0  0  0  0  0  0  0
   -1.1018  -49.9085  -15.6254 C   0  0  0  0  0  0  0  0  0  0  0  0
   -2.3357  -50.1165  -15.0441 C   0  0  0  0  0  0  0  0  0  0  0  0
   -3.0894  -51.2177  -15.3874 C   0  0  0  0  0  0  0  0  0  0  0  0
   -2.5473  -52.0812  -16.3276 C   0  0  0  0  0  0  0  0  0  0  0  0
   -1.3246  -51.9072  -16.9274 C   0  0  0  0  0  0  0  0  0  0  0  0
 30 31  1  0  0  0
 31 32  2  0  0  0
 32 33  1  0  0  0
 33 34  2  0  0  0
 34 35  1  0  0  0
 35 36  2  0  0  0
 36 29  1  0  0  0
 29 27  1  0  0  0
 27  1  1  0  0  0
  1  2  2  0  0  0
  2  3  1  0  0  0
  3  4  2  0  0  0
  4  5  1  0  0  0
  5  6  2  0  0  0
  6  7  1  0  0  0
  7  8  2  0  0  0
  8  9  1  0  0  0
  9 10  1  0  0  0
 10 11  1  0  0  0
 11 12  1  0  0  0
 12 19  1  0  0  0
 19 20  2  0  0  0
 19 21  1  0  0  0
 21 23  1  0  0  0
 23 24  1  0  0  0
 24 25  1  0  0  0
 12 13  1  0  0  0
 13 14  1  0  0  0
 13 15  1  0  0  0
 15 16  1  0  0  0
 36 31  1  0  0  0
  6  1  1  0  0  0
 15 10  1  0  0  0
  9  5  1  0  0  0
 27 28  1  0  0  0
 21 22  1  0  0  0
 25 26  1  0  0  0
 14 17  1  0  0  0
 16 18  1  0  0  0
M  END
> <minimizedAffinity>
-8.80613

> <CNNscore>
0.8644566536

> <CNNaffinity>
6.5218696594

> <CNN_VS>
5.6378736496

> <CNNaffinity_variance>
0.0474183224

$$$$
[H]OC([H])([H])C([H])([H])N([H])C(=O)[C@@]1([H])O[C@@]([H])(n2c([H])nc3c(N([H])C([H])([H])c4c([H])c([H])c([H])c([H])c4C([H])([H])[H])nc([H])nc32)[C@]([H])(O[H])[C@]1([H])O[H]


 36 39  0  0  0  0  0  0  0  0999 V2000
   -0.5627  -53.1509  -19.4825 C   0  0  0  0  0  0  0  0  0  0  0  0
   -1.5372  -53.5634  -20.3229 N   0  0  0  0  0  0  0  0  0  0  0  0
   -1.4271  -53.4557  -21.6541 C   0  0  0  0  0  0  0  0  0  0  0  0
   -0.3121  -52.9204  -22.1691 N   0  0  0  0  0  0  0  0  0  0  0  0
    0.6848  -52.4950  -21.3909 C   0  0  0  0  0  0  0  0  0  0  0  0
    0.5778  -52.6022  -20.0376 C   0  0  0  0  0  0  0  0  0  0  0  0
    1.7047  -52.1073  -19.4925 N   0  0  0  0  0  0  0  0  0  0  0  0
    2.5233  -51.6886  -20.4722 C   0  0  0  0  0  0  0  0  0  0  0  0
    1.8934  -51.9286  -21.6322 N   0  0  0  0  0  0  0  0  0  0  0  0
    2.4227  -51.6291  -22.9224 C   0  0  0  0  0  0  0  0  0  0  0  0
    1.8104  -52.3437  -23.9491 O   0  0  0  0  0  0  0  0  0  0  0  0
    2.6818  -52.1304  -25.0343 C   0  0  0  0  0  0  0  0  0  0  0  0
    4.0040  -52.5450  -24.3985 C   0  0  0  0  0  0  0  0  0  0  0  0
    5.0950  -52.1558  -25.1304 O   0  0  0  0  0  0  0  0  0  0  0  0
    3.8954  -51.8125  -23.0665 C   0  0  0  0  0  0  0  0  0  0  0  0
    4.5614  -50.5874  -23.2380 O   0  0  0  0  0  0  0  0  0  0  0  0
    5.8685  -52.7400  -24.8855 H   0  0  0  0  0  0  0  0  0  0  0  0
    5.2241  -50.4440  -22.5093 H   0  0  0  0  0  0  0  0  0  0  0  0
    2.3299  -52.9219  -26.2015 C   0  0  0  0  0  0  0  0  0  0  0  0
    3.2158  -53.3360  -26.9812 O   0  0  0  0  0  0  0  0  0  0  0  0
    0.9797  -53.2400  -26.4790 N   0  0  0  0  0  0  0  0  0  0  0  0
    0.2273  -52.9067  -25.8450 H   0  0  0  0  0  0  0  0  0  0  0  0
    0.6005  -54.0306  -27.6403 C   0  0  0  0  0  0  0  0  0  0  0  0
   -0.1965  -53.2008  -28.5905 C   0  0  0  0  0  0  0  0  0  0  0  0
    0.6205  -52.7975  -29.6485 O   0  0  0  0  0  0  0  0  0  0  0  0
    0.0915  -52.6512  -30.4887 H   0  0  0  0  0  0  0  0  0  0  0  0
   -0.7092  -53.2587  -18.0745 N   0  0  0  0  0  0  0  0  0  0  0  0
   -0.7261  -54.2248  -17.6643 H   0  0  0  0  0  0  0  0  0  0  0  0
   -0.8325  -52.1271  -17.2100 C   0  0  0  0  0  0  0  0  0  0  0  0
   -1.2496  -49.9378  -15.4517 C   0  0  0  0  0  0  0  0  0  0  0  0
   -2.3366  -50.8998  -15.6756 C   0  0  0  0  0  0  0  0  0  0  0  0
   -3.5274  -50.7414  -15.0346 C   0  0  0  0  0  0  0  0  0  0  0  0
   -4.5674  -51.6279  -15.2244 C   0  0  0  0  0  0  0  0  0  0  0  0
   -4.4194  -52.7020  -16.0747 C   0  0  0  0  0  0  0  0  0  0  0  0
   -3.1945  -52.8344  -16.7114 C   0  0  0  0  0  0  0  0  0  0  0  0
   -2.1378  -51.9732  -16.5484 C   0  0  0  0  0  0  0  0  0  0  0  0
 30 31  1  0  0  0
 31 32  2  0  0  0
 32 33  1  0  0  0
 33 34  2  0  0  0
 34 35  1  0  0  0
 35 36  2  0  0  0
 36 29  1  0  0  0
 29 27  1  0  0  0
 27  1  1  0  0  0
  1  2  2  0  0  0
  2  3  1  0  0  0
  3  4  2  0  0  0
  4  5  1  0  0  0
  5  6  2  0  0  0
  6  7  1  0  0  0
  7  8  2  0  0  0
  8  9  1  0  0  0
  9 10  1  0  0  0
 10 11  1  0  0  0
 11 12  1  0  0  0
 12 19  1  0  0  0
 19 20  2  0  0  0
 19 21  1  0  0  0
 21 23  1  0  0  0
 23 24  1  0  0  0
 24 25  1  0  0  0
 12 13  1  0  0  0
 13 14  1  0  0  0
 13 15  1  0  0  0
 15 16  1  0  0  0
 36 31  1  0  0  0
  6  1  1  0  0  0
 15 10  1  0  0  0
  9  5  1  0  0  0
 27 28  1  0  0  0
 21 22  1  0  0  0
 25 26  1  0  0  0
 14 17  1  0  0  0
 16 18  1  0  0  0
M  END
> <minimizedAffinity>
-8.80413

> <CNNscore>
0.7674544454

> <CNNaffinity>
6.3257117271

> <CNN_VS>
4.8546957970

> <CNNaffinity_variance>
0.0653460845

$$$$
[H]OC([H])([H])C([H])([H])N([H])C(=O)[C@@]1([H])O[C@@]([H])(n2c([H])nc3c(N([H])C([H])([H])c4c([H])c([H])c([H])c([H])c4C([H])([H])[H])nc([H])nc32)[C@]([H])(O[H])[C@]1([H])O[H]


 36 39  0  0  0  0  0  0  0  0999 V2000
   -0.4760  -52.6520  -18.8624 C   0  0  0  0  0  0  0  0  0  0  0  0
    0.4140  -51.6457  -18.7164 N   0  0  0  0  0  0  0  0  0  0  0  0
    1.1531  -51.1903  -19.7372 C   0  0  0  0  0  0  0  0  0  0  0  0
    1.0041  -51.7526  -20.9442 N   0  0  0  0  0  0  0  0  0  0  0  0
    0.1417  -52.7493  -21.1509 C   0  0  0  0  0  0  0  0  0  0  0  0
   -0.6117  -53.2157  -20.1169 C   0  0  0  0  0  0  0  0  0  0  0  0
   -1.3899  -54.2088  -20.5862 N   0  0  0  0  0  0  0  0  0  0  0  0
   -1.1451  -54.3814  -21.8960 C   0  0  0  0  0  0  0  0  0  0  0  0
   -0.2065  -53.4850  -22.2360 N   0  0  0  0  0  0  0  0  0  0  0  0
    0.3387  -53.3351  -23.5454 C   0  0  0  0  0  0  0  0  0  0  0  0
    1.5019  -52.5698  -23.5740 O   0  0  0  0  0  0  0  0  0  0  0  0
    1.6613  -52.3039  -24.9476 C   0  0  0  0  0  0  0  0  0  0  0  0
    0.2814  -51.7423  -25.2711 C   0  0  0  0  0  0  0  0  0  0  0  0
    0.0344  -51.6717  -26.6170 O   0  0  0  0  0  0  0  0  0  0  0  0
   -0.5927  -52.7712  -24.5641 C   0  0  0  0  0  0  0  0  0  0  0  0
   -0.9428  -53.7223  -25.5371 O   0  0  0  0  0  0  0  0  0  0  0  0
   -0.6813  -50.9918  -26.7750 H   0  0  0  0  0  0  0  0  0  0  0  0
   -1.9274  -53.8678  -25.5464 H   0  0  0  0  0  0  0  0  0  0  0  0
    2.7418  -51.3699  -25.2175 C   0  0  0  0  0  0  0  0  0  0  0  0
    2.6907  -50.6048  -26.2054 O   0  0  0  0  0  0  0  0  0  0  0  0
    3.8720  -51.3072  -24.3690 N   0  0  0  0  0  0  0  0  0  0  0  0
    3.9357  -51.9333  -23.5425 H   0  0  0  0  0  0  0  0  0  0  0  0
    4.9671  -50.3815  -24.6164 C   0  0  0  0  0  0  0  0  0  0  0  0
    6.2655  -51.0020  -24.2216 C   0  0  0  0  0  0  0  0  0  0  0  0
    6.3257  -52.3043  -24.7215 O   0  0  0  0  0  0  0  0  0  0  0  0
    7.2724  -52.5921  -24.8893 H   0  0  0  0  0  0  0  0  0  0  0  0
   -1.2353  -53.1299  -17.7621 N   0  0  0  0  0  0  0  0  0  0  0  0
   -1.8957  -53.9259  -17.9417 H   0  0  0  0  0  0  0  0  0  0  0  0
   -1.1389  -52.5816  -16.4456 C   0  0  0  0  0  0  0  0  0  0  0  0
   -0.6028  -50.0275  -15.3286 C   0  0  0  0  0  0  0  0  0  0  0  0
   -1.9947  -50.4739  -15.4716 C   0  0  0  0  0  0  0  0  0  0  0  0
   -3.0126  -49.6682  -15.0612 C   0  0  0  0  0  0  0  0  0  0  0  0
   -4.3302  -50.0592  -15.1825 C   0  0  0  0  0  0  0  0  0  0  0  0
   -4.6444  -51.2854  -15.7267 C   0  0  0  0  0  0  0  0  0  0  0  0
   -3.5846  -52.0815  -16.1345 C   0  0  0  0  0  0  0  0  0  0  0  0
   -2.2624  -51.7267  -16.0304 C   0  0  0  0  0  0  0  0  0  0  0  0
 30 31  1  0  0  0
 31 32  2  0  0  0
 32 33  1  0  0  0
 33 34  2  0  0  0
 34 35  1  0  0  0
 35 36  2  0  0  0
 36 29  1  0  0  0
 29 27  1  0  0  0
 27  1  1  0  0  0
  1  2  2  0  0  0
  2  3  1  0  0  0
  3  4  2  0  0  0
  4  5  1  0  0  0
  5  6  2  0  0  0
  6  7  1  0  0  0
  7  8  2  0  0  0
  8  9  1  0  0  0
  9 10  1  0  0  0
 10 11  1  0  0  0
 11 12  1  0  0  0
 12 19  1  0  0  0
 19 20  2  0  0  0
 19 21  1  0  0  0
 21 23  1  0  0  0
 23 24  1  0  0  0
 24 25  1  0  0  0
 12 13  1  0  0  0
 13 14  1  0  0  0
 13 15  1  0  0  0
 15 16  1  0  0  0
 36 31  1  0  0  0
  6  1  1  0  0  0
 15 10  1  0  0  0
  9  5  1  0  0  0
 27 28  1  0  0  0
 21 22  1  0  0  0
 25 26  1  0  0  0
 14 17  1  0  0  0
 16 18  1  0  0  0
M  END
> <minimizedAffinity>
-8.51938

> <CNNscore>
0.7542062998

> <CNNaffinity>
6.2485589981

> <CNN_VS>
4.7127027512

> <CNNaffinity_variance>
0.1527539194

$$$$
[H]OC([H])([H])C([H])([H])N([H])C(=O)[C@@]1([H])O[C@@]([H])(n2c([H])nc3c(N([H])C([H])([H])c4c([H])c([H])c([H])c([H])c4C([H])([H])[H])nc([H])nc32)[C@]([H])(O[H])[C@]1([H])O[H]


 36 39  0  0  0  0  0  0  0  0999 V2000
    0.2126  -52.3678  -23.0772 C   0  0  0  0  0  0  0  0  0  0  0  0
   -0.2013  -53.6406  -22.8914 N   0  0  0  0  0  0  0  0  0  0  0  0
   -0.2973  -54.1915  -21.6735 C   0  0  0  0  0  0  0  0  0  0  0  0
    0.0287  -53.4541  -20.6034 N   0  0  0  0  0  0  0  0  0  0  0  0
    0.4439  -52.1918  -20.7226 C   0  0  0  0  0  0  0  0  0  0  0  0
    0.5430  -51.6274  -21.9579 C   0  0  0  0  0  0  0  0  0  0  0  0
    0.9786  -50.3633  -21.8022 N   0  0  0  0  0  0  0  0  0  0  0  0
    1.1577  -50.1151  -20.4939 C   0  0  0  0  0  0  0  0  0  0  0  0
    0.8286  -51.2382  -19.8380 N   0  0  0  0  0  0  0  0  0  0  0  0
    0.8793  -51.3975  -18.4215 C   0  0  0  0  0  0  0  0  0  0  0  0
   -0.3792  -51.4640  -17.8287 O   0  0  0  0  0  0  0  0  0  0  0  0
   -0.0841  -51.3002  -16.4617 C   0  0  0  0  0  0  0  0  0  0  0  0
    0.7472  -50.0237  -16.5206 C   0  0  0  0  0  0  0  0  0  0  0  0
    1.4352  -49.7791  -15.3612 O   0  0  0  0  0  0  0  0  0  0  0  0
    1.6639  -50.3616  -17.6903 C   0  0  0  0  0  0  0  0  0  0  0  0
    2.8366  -50.8928  -17.1279 O   0  0  0  0  0  0  0  0  0  0  0  0
    1.6491  -48.8036  -15.3166 H   0  0  0  0  0  0  0  0  0  0  0  0
    3.6397  -50.4299  -17.4904 H   0  0  0  0  0  0  0  0  0  0  0  0
   -1.2769  -51.1743  -15.6405 C   0  0  0  0  0  0  0  0  0  0  0  0
   -1.3787  -50.2519  -14.8022 O   0  0  0  0  0  0  0  0  0  0  0  0
   -2.3458  -52.0914  -15.7729 N   0  0  0  0  0  0  0  0  0  0  0  0
   -2.2829  -52.8654  -16.4629 H   0  0  0  0  0  0  0  0  0  0  0  0
   -3.5506  -51.9878  -14.9635 C   0  0  0  0  0  0  0  0  0  0  0  0
   -4.5559  -51.1206  -15.6447 C   0  0  0  0  0  0  0  0  0  0  0  0
   -4.4663  -49.8232  -15.1367 O   0  0  0  0  0  0  0  0  0  0  0  0
   -4.7525  -49.1405  -15.8144 H   0  0  0  0  0  0  0  0  0  0  0  0
    0.3234  -51.8112  -24.3785 N   0  0  0  0  0  0  0  0  0  0  0  0
    0.1240  -50.7859  -24.4828 H   0  0  0  0  0  0  0  0  0  0  0  0
    0.6883  -52.5757  -25.5299 C   0  0  0  0  0  0  0  0  0  0  0  0
    1.5566  -53.1669  -28.1671 C   0  0  0  0  0  0  0  0  0  0  0  0
    0.1410  -52.8582  -27.9265 C   0  0  0  0  0  0  0  0  0  0  0  0
   -0.7389  -52.8484  -28.9655 C   0  0  0  0  0  0  0  0  0  0  0  0
   -2.0746  -52.5624  -28.7715 C   0  0  0  0  0  0  0  0  0  0  0  0
   -2.5487  -52.2780  -27.5094 C   0  0  0  0  0  0  0  0  0  0  0  0
   -1.6267  -52.2962  -26.4736 C   0  0  0  0  0  0  0  0  0  0  0  0
   -0.2916  -52.5766  -26.6276 C   0  0  0  0  0  0  0  0  0  0  0  0
 30 31  1  0  0  0
 31 32  2  0  0  0
 32 33  1  0  0  0
 33 34  2  0  0  0
 34 35  1  0  0  0
 35 36  2  0  0  0
 36 29  1  0  0  0
 29 27  1  0  0  0
 27  1  1  0  0  0
  1  2  2  0  0  0
  2  3  1  0  0  0
  3  4  2  0  0  0
  4  5  1  0  0  0
  5  6  2  0  0  0
  6  7  1  0  0  0
  7  8  2  0  0  0
  8  9  1  0  0  0
  9 10  1  0  0  0
 10 11  1  0  0  0
 11 12  1  0  0  0
 12 19  1  0  0  0
 19 20  2  0  0  0
 19 21  1  0  0  0
 21 23  1  0  0  0
 23 24  1  0  0  0
 24 25  1  0  0  0
 12 13  1  0  0  0
 13 14  1  0  0  0
 13 15  1  0  0  0
 15 16  1  0  0  0
 36 31  1  0  0  0
  6  1  1  0  0  0
 15 10  1  0  0  0
  9  5  1  0  0  0
 27 28  1  0  0  0
 21 22  1  0  0  0
 25 26  1  0  0  0
 14 17  1  0  0  0
 16 18  1  0  0  0
M  END
> <minimizedAffinity>
-7.84025

> <CNNscore>
0.6753697991

> <CNNaffinity>
6.0682373047

> <CNN_VS>
4.0983042717

> <CNNaffinity_variance>
0.1882598698

$$$$
[H]OC([H])([H])C([H])([H])N([H])C(=O)[C@@]1([H])O[C@@]([H])(n2c([H])nc3c(N([H])C([H])([H])c4c([H])c([H])c([H])c([H])c4C([H])([H])[H])nc([H])nc32)[C@]([H])(O[H])[C@]1([H])O[H]


 36 39  0  0  0  0  0  0  0  0999 V2000
   -0.2225  -52.8442  -22.7246 C   0  0  0  0  0  0  0  0  0  0  0  0
   -0.7405  -53.7368  -21.8523 N   0  0  0  0  0  0  0  0  0  0  0  0
   -0.6333  -53.5855  -20.5252 C   0  0  0  0  0  0  0  0  0  0  0  0
    0.0098  -52.5117  -20.0471 N   0  0  0  0  0  0  0  0  0  0  0  0
    0.5423  -51.5956  -20.8579 C   0  0  0  0  0  0  0  0  0  0  0  0
    0.4361  -51.7448  -22.2073 C   0  0  0  0  0  0  0  0  0  0  0  0
    1.0492  -50.6974  -22.7895 N   0  0  0  0  0  0  0  0  0  0  0  0
    1.5418  -49.8877  -21.8370 C   0  0  0  0  0  0  0  0  0  0  0  0
    1.2283  -50.4429  -20.6566 N   0  0  0  0  0  0  0  0  0  0  0  0
    1.5698  -49.8962  -19.3843 C   0  0  0  0  0  0  0  0  0  0  0  0
    2.1194  -48.6189  -19.4625 O   0  0  0  0  0  0  0  0  0  0  0  0
    2.6504  -48.4331  -18.1717 C   0  0  0  0  0  0  0  0  0  0  0  0
    3.4899  -49.6994  -18.0453 C   0  0  0  0  0  0  0  0  0  0  0  0
    3.8944  -49.9471  -16.7598 O   0  0  0  0  0  0  0  0  0  0  0  0
    2.4900  -50.7290  -18.5578 C   0  0  0  0  0  0  0  0  0  0  0  0
    1.8474  -51.2498  -17.4222 O   0  0  0  0  0  0  0  0  0  0  0  0
    4.7013  -50.5367  -16.7870 H   0  0  0  0  0  0  0  0  0  0  0  0
    1.8726  -52.2448  -17.4309 H   0  0  0  0  0  0  0  0  0  0  0  0
    3.4288  -47.2111  -18.0549 C   0  0  0  0  0  0  0  0  0  0  0  0
    4.3205  -47.1045  -17.1845 O   0  0  0  0  0  0  0  0  0  0  0  0
    3.1941  -46.1187  -18.9226 N   0  0  0  0  0  0  0  0  0  0  0  0
    2.4585  -46.1851  -19.6531 H   0  0  0  0  0  0  0  0  0  0  0  0
    3.9590  -44.8845  -18.8271 C   0  0  0  0  0  0  0  0  0  0  0  0
    5.1104  -44.9172  -19.7756 C   0  0  0  0  0  0  0  0  0  0  0  0
    5.9769  -43.8614  -19.4865 O   0  0  0  0  0  0  0  0  0  0  0  0
    6.9221  -44.0775  -19.7459 H   0  0  0  0  0  0  0  0  0  0  0  0
   -0.3329  -53.0348  -24.1272 N   0  0  0  0  0  0  0  0  0  0  0  0
   -0.6873  -53.9650  -24.4606 H   0  0  0  0  0  0  0  0  0  0  0  0
    0.0124  -52.0312  -25.0846 C   0  0  0  0  0  0  0  0  0  0  0  0
    1.9349  -52.5816  -27.0993 C   0  0  0  0  0  0  0  0  0  0  0  0
    0.5099  -52.5462  -27.4532 C   0  0  0  0  0  0  0  0  0  0  0  0
    0.1232  -52.7670  -28.7399 C   0  0  0  0  0  0  0  0  0  0  0  0
   -1.2075  -52.7405  -29.1033 C   0  0  0  0  0  0  0  0  0  0  0  0
   -2.1808  -52.4872  -28.1615 C   0  0  0  0  0  0  0  0  0  0  0  0
   -1.7533  -52.2665  -26.8607 C   0  0  0  0  0  0  0  0  0  0  0  0
   -0.4399  -52.2853  -26.4615 C   0  0  0  0  0  0  0  0  0  0  0  0
 30 31  1  0  0  0
 31 32  2  0  0  0
 32 33  1  0  0  0
 33 34  2  0  0  0
 34 35  1  0  0  0
 35 36  2  0  0  0
 36 29  1  0  0  0
 29 27  1  0  0  0
 27  1  1  0  0  0
  1  2  2  0  0  0
  2  3  1  0  0  0
  3  4  2  0  0  0
  4  5  1  0  0  0
  5  6  2  0  0  0
  6  7  1  0  0  0
  7  8  2  0  0  0
  8  9  1  0  0  0
  9 10  1  0  0  0
 10 11  1  0  0  0
 11 12  1  0  0  0
 12 19  1  0  0  0
 19 20  2  0  0  0
 19 21  1  0  0  0
 21 23  1  0  0  0
 23 24  1  0  0  0
 24 25  1  0  0  0
 12 13  1  0  0  0
 13 14  1  0  0  0
 13 15  1  0  0  0
 15 16  1  0  0  0
 36 31  1  0  0  0
  6  1  1  0  0  0
 15 10  1  0  0  0
  9  5  1  0  0  0
 27 28  1  0  0  0
 21 22  1  0  0  0
 25 26  1  0  0  0
 14 17  1  0  0  0
 16 18  1  0  0  0
M  END
> <minimizedAffinity>
-7.21594

> <CNNscore>
0.6417192817

> <CNNaffinity>
5.9922795296

> <CNN_VS>
3.8453612328

> <CNNaffinity_variance>
0.4405011535

$$$$
[H]OC([H])([H])C([H])([H])N([H])C(=O)[C@@]1([H])O[C@@]([H])(n2c([H])nc3c(N([H])C([H])([H])c4c([H])c([H])c([H])c([H])c4C([H])([H])[H])nc([H])nc32)[C@]([H])(O[H])[C@]1([H])O[H]


 36 39  0  0  0  0  0  0  0  0999 V2000
   -0.0911  -52.0764  -19.1369 C   0  0  0  0  0  0  0  0  0  0  0  0
    0.5047  -50.9144  -18.7893 N   0  0  0  0  0  0  0  0  0  0  0  0
    1.2018  -50.1776  -19.6652 C   0  0  0  0  0  0  0  0  0  0  0  0
    1.3115  -50.6086  -20.9290 N   0  0  0  0  0  0  0  0  0  0  0  0
    0.7457  -51.7476  -21.3324 C   0  0  0  0  0  0  0  0  0  0  0  0
    0.0363  -52.4998  -20.4462 C   0  0  0  0  0  0  0  0  0  0  0  0
   -0.4243  -53.5837  -21.0984 N   0  0  0  0  0  0  0  0  0  0  0  0
   -0.0213  -53.5338  -22.3792 C   0  0  0  0  0  0  0  0  0  0  0  0
    0.6946  -52.4074  -22.5164 N   0  0  0  0  0  0  0  0  0  0  0  0
    1.3076  -51.9759  -23.7298 C   0  0  0  0  0  0  0  0  0  0  0  0
    0.4984  -52.1524  -24.8495 O   0  0  0  0  0  0  0  0  0  0  0  0
    1.4013  -51.9663  -25.9137 C   0  0  0  0  0  0  0  0  0  0  0  0
    2.4953  -52.9476  -25.5084 C   0  0  0  0  0  0  0  0  0  0  0  0
    3.6611  -52.7673  -26.2054 O   0  0  0  0  0  0  0  0  0  0  0  0
    2.6302  -52.5946  -24.0320 C   0  0  0  0  0  0  0  0  0  0  0  0
    3.6768  -51.6612  -23.9466 O   0  0  0  0  0  0  0  0  0  0  0  0
    4.1856  -53.6178  -26.1758 H   0  0  0  0  0  0  0  0  0  0  0  0
    4.3410  -51.9416  -23.2604 H   0  0  0  0  0  0  0  0  0  0  0  0
    0.8119  -52.2626  -27.2090 C   0  0  0  0  0  0  0  0  0  0  0  0
    1.5349  -52.4158  -28.2179 O   0  0  0  0  0  0  0  0  0  0  0  0
   -0.5900  -52.3836  -27.3546 N   0  0  0  0  0  0  0  0  0  0  0  0
   -1.2099  -52.2604  -26.5302 H   0  0  0  0  0  0  0  0  0  0  0  0
   -1.2055  -52.6797  -28.6396 C   0  0  0  0  0  0  0  0  0  0  0  0
   -2.6923  -52.6434  -28.5192 C   0  0  0  0  0  0  0  0  0  0  0  0
   -3.0413  -52.2401  -27.2288 O   0  0  0  0  0  0  0  0  0  0  0  0
   -3.9311  -51.7759  -27.2149 H   0  0  0  0  0  0  0  0  0  0  0  0
   -0.8096  -52.8492  -18.1871 N   0  0  0  0  0  0  0  0  0  0  0  0
   -1.3180  -53.6968  -18.5409 H   0  0  0  0  0  0  0  0  0  0  0  0
   -0.8678  -52.5260  -16.7960 C   0  0  0  0  0  0  0  0  0  0  0  0
   -0.8977  -50.0481  -15.4112 C   0  0  0  0  0  0  0  0  0  0  0  0
   -2.1603  -50.7645  -15.6342 C   0  0  0  0  0  0  0  0  0  0  0  0
   -3.3291  -50.2430  -15.1698 C   0  0  0  0  0  0  0  0  0  0  0  0
   -4.5311  -50.8920  -15.3637 C   0  0  0  0  0  0  0  0  0  0  0  0
   -4.5722  -52.0929  -16.0378 C   0  0  0  0  0  0  0  0  0  0  0  0
   -3.3646  -52.5964  -16.4976 C   0  0  0  0  0  0  0  0  0  0  0  0
   -2.1502  -51.9798  -16.3245 C   0  0  0  0  0  0  0  0  0  0  0  0
 30 31  1  0  0  0
 31 32  2  0  0  0
 32 33  1  0  0  0
 33 34  2  0  0  0
 34 35  1  0  0  0
 35 36  2  0  0  0
 36 29  1  0  0  0
 29 27  1  0  0  0
 27  1  1  0  0  0
  1  2  2  0  0  0
  2  3  1  0  0  0
  3  4  2  0  0  0
  4  5  1  0  0  0
  5  6  2  0  0  0
  6  7  1  0  0  0
  7  8  2  0  0  0
  8  9  1  0  0  0
  9 10  1  0  0  0
 10 11  1  0  0  0
 11 12  1  0  0  0
 12 19  1  0  0  0
 19 20  2  0  0  0
 19 21  1  0  0  0
 21 23  1  0  0  0
 23 24  1  0  0  0
 24 25  1  0  0  0
 12 13  1  0  0  0
 13 14  1  0  0  0
 13 15  1  0  0  0
 15 16  1  0  0  0
 36 31  1  0  0  0
  6  1  1  0  0  0
 15 10  1  0  0  0
  9  5  1  0  0  0
 27 28  1  0  0  0
 21 22  1  0  0  0
 25 26  1  0  0  0
 14 17  1  0  0  0
 16 18  1  0  0  0
M  END
> <minimizedAffinity>
-8.81219

> <CNNscore>
0.6296307445

> <CNNaffinity>
6.0931005478

> <CNN_VS>
3.8364033699

> <CNNaffinity_variance>
0.1091026664

$$$$
[H]OC([H])([H])C([H])([H])N([H])C(=O)[C@@]1([H])O[C@@]([H])(n2c([H])nc3c(N([H])C([H])([H])c4c([H])c([H])c([H])c([H])c4C([H])([H])[H])nc([H])nc32)[C@]([H])(O[H])[C@]1([H])O[H]


 36 39  0  0  0  0  0  0  0  0999 V2000
   -0.7964  -53.2044  -19.1926 C   0  0  0  0  0  0  0  0  0  0  0  0
   -1.5877  -53.7112  -20.1637 N   0  0  0  0  0  0  0  0  0  0  0  0
   -1.2778  -53.6123  -21.4637 C   0  0  0  0  0  0  0  0  0  0  0  0
   -0.1440  -52.9892  -21.8121 N   0  0  0  0  0  0  0  0  0  0  0  0
    0.6781  -52.4685  -20.8993 C   0  0  0  0  0  0  0  0  0  0  0  0
    0.3677  -52.5664  -19.5770 C   0  0  0  0  0  0  0  0  0  0  0  0
    1.3488  -51.9683  -18.8758 N   0  0  0  0  0  0  0  0  0  0  0  0
    2.2742  -51.4934  -19.7263 C   0  0  0  0  0  0  0  0  0  0  0  0
    1.8581  -51.8027  -20.9636 N   0  0  0  0  0  0  0  0  0  0  0  0
    2.5579  -51.4758  -22.1627 C   0  0  0  0  0  0  0  0  0  0  0  0
    3.9083  -51.2045  -21.9564 O   0  0  0  0  0  0  0  0  0  0  0  0
    4.2940  -50.6182  -23.1771 C   0  0  0  0  0  0  0  0  0  0  0  0
    3.2308  -49.5322  -23.2975 C   0  0  0  0  0  0  0  0  0  0  0  0
    3.1675  -48.9819  -24.5508 O   0  0  0  0  0  0  0  0  0  0  0  0
    1.9885  -50.3415  -22.9452 C   0  0  0  0  0  0  0  0  0  0  0  0
    1.4411  -50.7700  -24.1660 O   0  0  0  0  0  0  0  0  0  0  0  0
    2.7475  -48.0774  -24.4814 H   0  0  0  0  0  0  0  0  0  0  0  0
    0.4728  -50.5447  -24.2141 H   0  0  0  0  0  0  0  0  0  0  0  0
    5.6504  -50.0964  -23.1460 C   0  0  0  0  0  0  0  0  0  0  0  0
    6.4604  -50.4792  -22.2736 O   0  0  0  0  0  0  0  0  0  0  0  0
    6.0813  -49.1460  -24.1011 N   0  0  0  0  0  0  0  0  0  0  0  0
    5.4254  -48.8137  -24.8350 H   0  0  0  0  0  0  0  0  0  0  0  0
    7.4333  -48.6079  -24.0925 C   0  0  0  0  0  0  0  0  0  0  0  0
    8.1851  -49.0843  -25.2902 C   0  0  0  0  0  0  0  0  0  0  0  0
    7.2803  -49.4300  -26.2958 O   0  0  0  0  0  0  0  0  0  0  0  0
    7.6818  -49.3171  -27.2087 H   0  0  0  0  0  0  0  0  0  0  0  0
   -1.1543  -53.3056  -17.8224 N   0  0  0  0  0  0  0  0  0  0  0  0
   -1.5298  -54.2275  -17.4893 H   0  0  0  0  0  0  0  0  0  0  0  0
   -1.0267  -52.2240  -16.8967 C   0  0  0  0  0  0  0  0  0  0  0  0
   -1.0795  -49.7172  -15.5657 C   0  0  0  0  0  0  0  0  0  0  0  0
   -2.3030  -50.5274  -15.6255 C   0  0  0  0  0  0  0  0  0  0  0  0
   -3.4457  -50.0777  -15.0374 C   0  0  0  0  0  0  0  0  0  0  0  0
   -4.6108  -50.8156  -15.0766 C   0  0  0  0  0  0  0  0  0  0  0  0
   -4.6407  -52.0346  -15.7182 C   0  0  0  0  0  0  0  0  0  0  0  0
   -3.4603  -52.4635  -16.3066 C   0  0  0  0  0  0  0  0  0  0  0  0
   -2.2829  -51.7575  -16.2888 C   0  0  0  0  0  0  0  0  0  0  0  0
 30 31  1  0  0  0
 31 32  2  0  0  0
 32 33  1  0  0  0
 33 34  2  0  0  0
 34 35  1  0  0  0
 35 36  2  0  0  0
 36 29  1  0  0  0
 29 27  1  0  0  0
 27  1  1  0  0  0
  1  2  2  0  0  0
  2  3  1  0  0  0
  3  4  2  0  0  0
  4  5  1  0  0  0
  5  6  2  0  0  0
  6  7  1  0  0  0
  7  8  2  0  0  0
  8  9  1  0  0  0
  9 10  1  0  0  0
 10 11  1  0  0  0
 11 12  1  0  0  0
 12 19  1  0  0  0
 19 20  2  0  0  0
 19 21  1  0  0  0
 21 23  1  0  0  0
 23 24  1  0  0  0
 24 25  1  0  0  0
 12 13  1  0  0  0
 13 14  1  0  0  0
 13 15  1  0  0  0
 15 16  1  0  0  0
 36 31  1  0  0  0
  6  1  1  0  0  0
 15 10  1  0  0  0
  9  5  1  0  0  0
 27 28  1  0  0  0
 21 22  1  0  0  0
 25 26  1  0  0  0
 14 17  1  0  0  0
 16 18  1  0  0  0
M  END
> <minimizedAffinity>
-7.08037

> <CNNscore>
0.5880064964

> <CNNaffinity>
5.7971611023

> <CNN_VS>
3.4087684155

> <CNNaffinity_variance>
0.4925867021

$$$$
[H]OC([H])([H])C([H])([H])N([H])C(=O)[C@@]1([H])O[C@@]([H])(n2c([H])nc3c(N([H])C([H])([H])c4c([H])c([H])c([H])c([H])c4C([H])([H])[H])nc([H])nc32)[C@]([H])(O[H])[C@]1([H])O[H]


 36 39  0  0  0  0  0  0  0  0999 V2000
   -0.6818  -53.1520  -19.3876 C   0  0  0  0  0  0  0  0  0  0  0  0
   -1.5173  -53.9327  -20.1077 N   0  0  0  0  0  0  0  0  0  0  0  0
   -1.3321  -54.1640  -21.4146 C   0  0  0  0  0  0  0  0  0  0  0  0
   -0.2822  -53.6013  -22.0280 N   0  0  0  0  0  0  0  0  0  0  0  0
    0.5776  -52.8210  -21.3707 C   0  0  0  0  0  0  0  0  0  0  0  0
    0.3939  -52.5830  -20.0426 C   0  0  0  0  0  0  0  0  0  0  0  0
    1.3872  -51.7761  -19.6251 N   0  0  0  0  0  0  0  0  0  0  0  0
    2.1963  -51.4979  -20.6611 C   0  0  0  0  0  0  0  0  0  0  0  0
    1.6955  -52.1405  -21.7270 N   0  0  0  0  0  0  0  0  0  0  0  0
    2.2603  -52.1071  -23.0363 C   0  0  0  0  0  0  0  0  0  0  0  0
    3.2472  -51.1359  -23.1864 O   0  0  0  0  0  0  0  0  0  0  0  0
    3.4142  -51.0807  -24.5835 C   0  0  0  0  0  0  0  0  0  0  0  0
    1.9665  -50.8770  -25.0159 C   0  0  0  0  0  0  0  0  0  0  0  0
    1.7735  -51.0885  -26.3559 O   0  0  0  0  0  0  0  0  0  0  0  0
    1.2836  -51.9276  -24.1485 C   0  0  0  0  0  0  0  0  0  0  0  0
    1.1763  -53.0815  -24.9427 O   0  0  0  0  0  0  0  0  0  0  0  0
    0.9446  -50.6066  -26.6390 H   0  0  0  0  0  0  0  0  0  0  0  0
    0.2422  -53.4250  -24.9371 H   0  0  0  0  0  0  0  0  0  0  0  0
    4.2978  -50.0049  -25.0017 C   0  0  0  0  0  0  0  0  0  0  0  0
    5.1322  -49.5202  -24.2062 O   0  0  0  0  0  0  0  0  0  0  0  0
    4.2320  -49.4851  -26.3157 N   0  0  0  0  0  0  0  0  0  0  0  0
    3.5466  -49.8725  -26.9933 H   0  0  0  0  0  0  0  0  0  0  0  0
    5.1049  -48.4087  -26.7598 C   0  0  0  0  0  0  0  0  0  0  0  0
    4.3988  -47.0980  -26.6591 C   0  0  0  0  0  0  0  0  0  0  0  0
    3.0838  -47.2467  -27.1041 O   0  0  0  0  0  0  0  0  0  0  0  0
    2.4677  -46.5891  -26.6622 H   0  0  0  0  0  0  0  0  0  0  0  0
   -0.9083  -52.9067  -18.0076 N   0  0  0  0  0  0  0  0  0  0  0  0
   -0.0992  -52.5488  -17.4427 H   0  0  0  0  0  0  0  0  0  0  0  0
   -2.1686  -53.1235  -17.3691 C   0  0  0  0  0  0  0  0  0  0  0  0
   -4.7261  -53.2893  -16.1483 C   0  0  0  0  0  0  0  0  0  0  0  0
   -3.8249  -52.1873  -15.7870 C   0  0  0  0  0  0  0  0  0  0  0  0
   -4.2234  -51.2524  -14.8809 C   0  0  0  0  0  0  0  0  0  0  0  0
   -3.3997  -50.2058  -14.5208 C   0  0  0  0  0  0  0  0  0  0  0  0
   -2.1449  -50.0851  -15.0772 C   0  0  0  0  0  0  0  0  0  0  0  0
   -1.7700  -51.0536  -15.9964 C   0  0  0  0  0  0  0  0  0  0  0  0
   -2.5612  -52.1085  -16.3788 C   0  0  0  0  0  0  0  0  0  0  0  0
 30 31  1  0  0  0
 31 32  2  0  0  0
 32 33  1  0  0  0
 33 34  2  0  0  0
 34 35  1  0  0  0
 35 36  2  0  0  0
 36 29  1  0  0  0
 29 27  1  0  0  0
 27  1  1  0  0  0
  1  2  2  0  0  0
  2  3  1  0  0  0
  3  4  2  0  0  0
  4  5  1  0  0  0
  5  6  2  0  0  0
  6  7  1  0  0  0
  7  8  2  0  0  0
  8  9  1  0  0  0
  9 10  1  0  0  0
 10 11  1  0  0  0
 11 12  1  0  0  0
 12 19  1  0  0  0
 19 20  2  0  0  0
 19 21  1  0  0  0
 21 23  1  0  0  0
 23 24  1  0  0  0
 24 25  1  0  0  0
 12 13  1  0  0  0
 13 14  1  0  0  0
 13 15  1  0  0  0
 15 16  1  0  0  0
 36 31  1  0  0  0
  6  1  1  0  0  0
 15 10  1  0  0  0
  9  5  1  0  0  0
 27 28  1  0  0  0
 21 22  1  0  0  0
 25 26  1  0  0  0
 14 17  1  0  0  0
 16 18  1  0  0  0
M  END
> <minimizedAffinity>
-7.03883

> <CNNscore>
0.5759879351

> <CNNaffinity>
5.9565925598

> <CNN_VS>
3.4309253693

> <CNNaffinity_variance>
0.4415075183

$$$$
[H]OC([H])([H])C([H])([H])N([H])C(=O)[C@@]1([H])O[C@@]([H])(n2c([H])nc3c(N([H])C([H])([H])c4c([H])c([H])c([H])c([H])c4C([H])([H])[H])nc([H])nc32)[C@]([H])(O[H])[C@]1([H])O[H]


 36 39  0  0  0  0  0  0  0  0999 V2000
   -0.4008  -53.4452  -22.3663 C   0  0  0  0  0  0  0  0  0  0  0  0
   -1.4569  -54.0823  -21.8142 N   0  0  0  0  0  0  0  0  0  0  0  0
   -1.7776  -53.9471  -20.5201 C   0  0  0  0  0  0  0  0  0  0  0  0
   -1.0247  -53.1525  -19.7474 N   0  0  0  0  0  0  0  0  0  0  0  0
    0.0303  -52.4971  -20.2347 C   0  0  0  0  0  0  0  0  0  0  0  0
    0.3604  -52.6312  -21.5491 C   0  0  0  0  0  0  0  0  0  0  0  0
    1.4496  -51.8753  -21.7818 N   0  0  0  0  0  0  0  0  0  0  0  0
    1.8166  -51.2652  -20.6423 C   0  0  0  0  0  0  0  0  0  0  0  0
    0.9439  -51.6498  -19.6987 N   0  0  0  0  0  0  0  0  0  0  0  0
    0.9791  -51.2265  -18.3371 C   0  0  0  0  0  0  0  0  0  0  0  0
   -0.1576  -51.5874  -17.6179 O   0  0  0  0  0  0  0  0  0  0  0  0
   -0.0396  -50.8134  -16.4477 C   0  0  0  0  0  0  0  0  0  0  0  0
    0.1591  -49.4323  -17.0618 C   0  0  0  0  0  0  0  0  0  0  0  0
    0.6072  -48.5044  -16.1587 O   0  0  0  0  0  0  0  0  0  0  0  0
    1.1956  -49.7662  -18.1280 C   0  0  0  0  0  0  0  0  0  0  0  0
    2.4491  -49.4996  -17.5525 O   0  0  0  0  0  0  0  0  0  0  0  0
    0.3748  -47.5925  -16.4960 H   0  0  0  0  0  0  0  0  0  0  0  0
    2.9917  -48.9163  -18.1492 H   0  0  0  0  0  0  0  0  0  0  0  0
   -1.2133  -50.9018  -15.5947 C   0  0  0  0  0  0  0  0  0  0  0  0
   -2.3184  -51.2493  -16.0657 O   0  0  0  0  0  0  0  0  0  0  0  0
   -1.1294  -50.5970  -14.2158 N   0  0  0  0  0  0  0  0  0  0  0  0
   -0.2216  -50.3063  -13.8030 H   0  0  0  0  0  0  0  0  0  0  0  0
   -2.2888  -50.6776  -13.3401 C   0  0  0  0  0  0  0  0  0  0  0  0
   -2.3962  -52.0448  -12.7520 C   0  0  0  0  0  0  0  0  0  0  0  0
   -1.1335  -52.6404  -12.7346 O   0  0  0  0  0  0  0  0  0  0  0  0
   -1.0501  -53.3077  -11.9896 H   0  0  0  0  0  0  0  0  0  0  0  0
   -0.0696  -53.6178  -23.7361 N   0  0  0  0  0  0  0  0  0  0  0  0
    0.1753  -54.5878  -24.0541 H   0  0  0  0  0  0  0  0  0  0  0  0
   -0.0562  -52.5453  -24.6808 C   0  0  0  0  0  0  0  0  0  0  0  0
    2.6824  -52.1167  -25.2934 C   0  0  0  0  0  0  0  0  0  0  0  0
    1.7906  -52.6655  -26.3234 C   0  0  0  0  0  0  0  0  0  0  0  0
    2.2785  -52.9546  -27.5612 C   0  0  0  0  0  0  0  0  0  0  0  0
    1.4661  -53.4712  -28.5495 C   0  0  0  0  0  0  0  0  0  0  0  0
    0.1316  -53.7066  -28.3004 C   0  0  0  0  0  0  0  0  0  0  0  0
   -0.3333  -53.4012  -27.0300 C   0  0  0  0  0  0  0  0  0  0  0  0
    0.4440  -52.8871  -26.0218 C   0  0  0  0  0  0  0  0  0  0  0  0
 30 31  1  0  0  0
 31 32  2  0  0  0
 32 33  1  0  0  0
 33 34  2  0  0  0
 34 35  1  0  0  0
 35 36  2  0  0  0
 36 29  1  0  0  0
 29 27  1  0  0  0
 27  1  1  0  0  0
  1  2  2  0  0  0
  2  3  1  0  0  0
  3  4  2  0  0  0
  4  5  1  0  0  0
  5  6  2  0  0  0
  6  7  1  0  0  0
  7  8  2  0  0  0
  8  9  1  0  0  0
  9 10  1  0  0  0
 10 11  1  0  0  0
 11 12  1  0  0  0
 12 19  1  0  0  0
 19 20  2  0  0  0
 19 21  1  0  0  0
 21 23  1  0  0  0
 23 24  1  0  0  0
 24 25  1  0  0  0
 12 13  1  0  0  0
 13 14  1  0  0  0
 13 15  1  0  0  0
 15 16  1  0  0  0
 36 31  1  0  0  0
  6  1  1  0  0  0
 15 10  1  0  0  0
  9  5  1  0  0  0
 27 28  1  0  0  0
 21 22  1  0  0  0
 25 26  1  0  0  0
 14 17  1  0  0  0
 16 18  1  0  0  0
M  END
> <minimizedAffinity>
-6.97099

> <CNNscore>
0.5537734032

> <CNNaffinity>
5.9842205048

> <CNN_VS>
3.3139021397

> <CNNaffinity_variance>
0.2533313632

$$$$
[H]c1c([H])c([H])c(S(=O)(=O)c2c([H])c([H])c3c(c2[H])c2c(n3[H])C([H])([H])C([H])([H])C([H])(N([H])[H])C2([H])[H])c([H])c1[H]


 26 29  0  0  0  0  0  0  0  0999 V2000
    1.4805  -49.6658  -18.0352 N   0  0  0  0  0  0  0  0  0  0  0  0
    1.0763  -50.9695  -18.5556 C   0  0  0  0  0  0  0  0  0  0  0  0
    0.2121  -51.6325  -17.5458 C   0  0  0  0  0  0  0  0  0  0  0  0
   -0.8887  -52.4794  -18.0980 C   0  0  0  0  0  0  0  0  0  0  0  0
   -0.7146  -52.8618  -19.5097 C   0  0  0  0  0  0  0  0  0  0  0  0
   -1.0965  -53.9519  -20.1754 N   0  0  0  0  0  0  0  0  0  0  0  0
   -0.7216  -53.8687  -21.4498 C   0  0  0  0  0  0  0  0  0  0  0  0
   -0.8677  -54.7195  -22.5518 C   0  0  0  0  0  0  0  0  0  0  0  0
   -0.3383  -54.2940  -23.7498 C   0  0  0  0  0  0  0  0  0  0  0  0
    0.3097  -53.1007  -23.9023 C   0  0  0  0  0  0  0  0  0  0  0  0
    0.4503  -52.2674  -22.8136 C   0  0  0  0  0  0  0  0  0  0  0  0
   -0.0718  -52.6754  -21.6095 C   0  0  0  0  0  0  0  0  0  0  0  0
   -0.0671  -52.0426  -20.3916 C   0  0  0  0  0  0  0  0  0  0  0  0
    0.4584  -50.7533  -19.8889 C   0  0  0  0  0  0  0  0  0  0  0  0
    1.7001  -49.0335  -18.8179 H   0  0  0  0  0  0  0  0  0  0  0  0
    2.2247  -49.7603  -17.3222 H   0  0  0  0  0  0  0  0  0  0  0  0
   -1.6199  -54.7831  -19.7934 H   0  0  0  0  0  0  0  0  0  0  0  0
    0.9621  -52.6126  -25.4492 S   0  0  0  0  0  0  0  0  0  0  0  0
    1.9965  -53.6039  -25.8621 O   0  0  0  0  0  0  0  0  0  0  0  0
    1.6014  -51.2641  -25.2948 O   0  0  0  0  0  0  0  0  0  0  0  0
   -0.3686  -52.5492  -26.5832 C   0  0  0  0  0  0  0  0  0  0  0  0
   -0.1611  -52.9082  -27.8919 C   0  0  0  0  0  0  0  0  0  0  0  0
   -1.1525  -52.8886  -28.8552 C   0  0  0  0  0  0  0  0  0  0  0  0
   -2.4106  -52.4816  -28.4506 C   0  0  0  0  0  0  0  0  0  0  0  0
   -2.6494  -52.1134  -27.1355 C   0  0  0  0  0  0  0  0  0  0  0  0
   -1.6294  -52.1504  -26.2167 C   0  0  0  0  0  0  0  0  0  0  0  0
  1  2  1  0  0  0
  2  3  1  0  0  0
  3  4  1  0  0  0
  4  5  1  0  0  0
  5  6  1  0  0  0
  6  7  1  0  0  0
  7  8  2  0  0  0
  8  9  1  0  0  0
  9 10  2  0  0  0
 10 18  1  0  0  0
 18 19  2  0  0  0
 18 20  2  0  0  0
 18 21  1  0  0  0
 21 22  2  0  0  0
 22 23  1  0  0  0
 23 24  2  0  0  0
 24 25  1  0  0  0
 25 26  2  0  0  0
 10 11  1  0  0  0
 11 12  2  0  0  0
 12 13  1  0  0  0
 13 14  1  0  0  0
 14  2  1  0  0  0
 13  5  2  0  0  0
 12  7  1  0  0  0
 26 21  1  0  0  0
  1 15  1  0  0  0
  1 16  1  0  0  0
  6 17  1  0  0  0
M  END
> <minimizedAffinity>
-9.31604

> <CNNscore>
0.7575965524

> <CNNaffinity>
6.4506912231

> <CNN_VS>
4.8870215416

> <CNNaffinity_variance>
0.2068835199

$$$$
[H]c1c([H])c([H])c(S(=O)(=O)c2c([H])c([H])c3c(c2[H])c2c(n3[H])C([H])([H])C([H])([H])C([H])(N([H])[H])C2([H])[H])c([H])c1[H]


 26 29  0  0  0  0  0  0  0  0999 V2000
    3.0756  -52.4416  -28.1778 N   0  0  0  0  0  0  0  0  0  0  0  0
    1.9025  -52.5445  -27.3134 C   0  0  0  0  0  0  0  0  0  0  0  0
    0.9140  -53.4409  -27.9656 C   0  0  0  0  0  0  0  0  0  0  0  0
    0.1063  -54.2904  -27.0382 C   0  0  0  0  0  0  0  0  0  0  0  0
    0.1073  -53.8354  -25.6373 C   0  0  0  0  0  0  0  0  0  0  0  0
   -0.8218  -53.9276  -24.6858 N   0  0  0  0  0  0  0  0  0  0  0  0
   -0.3831  -53.3732  -23.5580 C   0  0  0  0  0  0  0  0  0  0  0  0
   -0.9467  -53.2045  -22.2877 C   0  0  0  0  0  0  0  0  0  0  0  0
   -0.1795  -52.5664  -21.3386 C   0  0  0  0  0  0  0  0  0  0  0  0
    1.0821  -52.1014  -21.5822 C   0  0  0  0  0  0  0  0  0  0  0  0
    1.6315  -52.2705  -22.8348 C   0  0  0  0  0  0  0  0  0  0  0  0
    0.8804  -52.9053  -23.7949 C   0  0  0  0  0  0  0  0  0  0  0  0
    1.1891  -53.1953  -25.1005 C   0  0  0  0  0  0  0  0  0  0  0  0
    2.3669  -52.9692  -25.9681 C   0  0  0  0  0  0  0  0  0  0  0  0
    3.9028  -52.2044  -27.6121 H   0  0  0  0  0  0  0  0  0  0  0  0
    2.8962  -51.8147  -28.9815 H   0  0  0  0  0  0  0  0  0  0  0  0
   -1.7771  -54.3654  -24.7660 H   0  0  0  0  0  0  0  0  0  0  0  0
    2.0101  -51.2981  -20.3370 S   0  0  0  0  0  0  0  0  0  0  0  0
    2.4508  -49.9713  -20.8552 O   0  0  0  0  0  0  0  0  0  0  0  0
    3.2162  -52.1341  -20.0249 O   0  0  0  0  0  0  0  0  0  0  0  0
    0.9776  -51.1390  -18.9337 C   0  0  0  0  0  0  0  0  0  0  0  0
    0.9340  -49.9456  -18.2566 C   0  0  0  0  0  0  0  0  0  0  0  0
    0.1485  -49.7300  -17.1396 C   0  0  0  0  0  0  0  0  0  0  0  0
   -0.6242  -50.7906  -16.7033 C   0  0  0  0  0  0  0  0  0  0  0  0
   -0.6003  -52.0074  -17.3675 C   0  0  0  0  0  0  0  0  0  0  0  0
    0.1979  -52.1700  -18.4730 C   0  0  0  0  0  0  0  0  0  0  0  0
  1  2  1  0  0  0
  2  3  1  0  0  0
  3  4  1  0  0  0
  4  5  1  0  0  0
  5  6  1  0  0  0
  6  7  1  0  0  0
  7  8  2  0  0  0
  8  9  1  0  0  0
  9 10  2  0  0  0
 10 18  1  0  0  0
 18 19  2  0  0  0
 18 20  2  0  0  0
 18 21  1  0  0  0
 21 22  2  0  0  0
 22 23  1  0  0  0
 23 24  2  0  0  0
 24 25  1  0  0  0
 25 26  2  0  0  0
 10 11  1  0  0  0
 11 12  2  0  0  0
 12 13  1  0  0  0
 13 14  1  0  0  0
 14  2  1  0  0  0
 13  5  2  0  0  0
 12  7  1  0  0  0
 26 21  1  0  0  0
  1 15  1  0  0  0
  1 16  1  0  0  0
  6 17  1  0  0  0
M  END
> <minimizedAffinity>
-8.83737

> <CNNscore>
0.5449890494

> <CNNaffinity>
6.4020776749

> <CNN_VS>
3.4890623093

> <CNNaffinity_variance>
0.1866768599

$$$$
[H]c1c([H])c([H])c(S(=O)(=O)c2c([H])c([H])c3c(c2[H])c2c(n3[H])C([H])([H])C([H])([H])C([H])(N([H])[H])C2([H])[H])c([H])c1[H]


 26 29  0  0  0  0  0  0  0  0999 V2000
    3.1213  -52.1018  -28.1962 N   0  0  0  0  0  0  0  0  0  0  0  0
    1.9385  -52.4047  -27.3943 C   0  0  0  0  0  0  0  0  0  0  0  0
    1.0954  -53.3703  -28.1447 C   0  0  0  0  0  0  0  0  0  0  0  0
    0.3659  -54.3720  -27.3089 C   0  0  0  0  0  0  0  0  0  0  0  0
    0.2568  -54.0142  -25.8843 C   0  0  0  0  0  0  0  0  0  0  0  0
   -0.6889  -54.2824  -24.9837 N   0  0  0  0  0  0  0  0  0  0  0  0
   -0.3661  -53.7544  -23.8053 C   0  0  0  0  0  0  0  0  0  0  0  0
   -0.9941  -53.7407  -22.5542 C   0  0  0  0  0  0  0  0  0  0  0  0
   -0.3493  -53.0777  -21.5338 C   0  0  0  0  0  0  0  0  0  0  0  0
    0.8524  -52.4466  -21.6904 C   0  0  0  0  0  0  0  0  0  0  0  0
    1.4657  -52.4636  -22.9245 C   0  0  0  0  0  0  0  0  0  0  0  0
    0.8370  -53.1206  -23.9550 C   0  0  0  0  0  0  0  0  0  0  0  0
    1.2288  -53.2834  -25.2604 C   0  0  0  0  0  0  0  0  0  0  0  0
    2.4011  -52.8576  -26.0576 C   0  0  0  0  0  0  0  0  0  0  0  0
    3.8903  -51.8030  -27.5797 H   0  0  0  0  0  0  0  0  0  0  0  0
    2.8954  -51.4497  -28.9674 H   0  0  0  0  0  0  0  0  0  0  0  0
   -1.5781  -54.8277  -25.1342 H   0  0  0  0  0  0  0  0  0  0  0  0
    1.6246  -51.6199  -20.3573 S   0  0  0  0  0  0  0  0  0  0  0  0
    2.7350  -52.4747  -19.8480 O   0  0  0  0  0  0  0  0  0  0  0  0
    0.6127  -51.4203  -19.2676 O   0  0  0  0  0  0  0  0  0  0  0  0
    2.2082  -50.0845  -20.9595 C   0  0  0  0  0  0  0  0  0  0  0  0
    1.3120  -49.0865  -21.2515 C   0  0  0  0  0  0  0  0  0  0  0  0
    1.6827  -47.8439  -21.7310 C   0  0  0  0  0  0  0  0  0  0  0  0
    3.0349  -47.6225  -21.9168 C   0  0  0  0  0  0  0  0  0  0  0  0
    3.9628  -48.6120  -21.6304 C   0  0  0  0  0  0  0  0  0  0  0  0
    3.5423  -49.8302  -21.1559 C   0  0  0  0  0  0  0  0  0  0  0  0
  1  2  1  0  0  0
  2  3  1  0  0  0
  3  4  1  0  0  0
  4  5  1  0  0  0
  5  6  1  0  0  0
  6  7  1  0  0  0
  7  8  2  0  0  0
  8  9  1  0  0  0
  9 10  2  0  0  0
 10 18  1  0  0  0
 18 19  2  0  0  0
 18 20  2  0  0  0
 18 21  1  0  0  0
 21 22  2  0  0  0
 22 23  1  0  0  0
 23 24  2  0  0  0
 24 25  1  0  0  0
 25 26  2  0  0  0
 10 11  1  0  0  0
 11 12  2  0  0  0
 12 13  1  0  0  0
 13 14  1  0  0  0
 14  2  1  0  0  0
 13  5  2  0  0  0
 12  7  1  0  0  0
 26 21  1  0  0  0
  1 15  1  0  0  0
  1 16  1  0  0  0
  6 17  1  0  0  0
M  END
> <minimizedAffinity>
-8.48732

> <CNNscore>
0.4884631932

> <CNNaffinity>
6.3496942520

> <CNN_VS>
3.1015918255

> <CNNaffinity_variance>
0.1659527719

$$$$
[H]c1c([H])c([H])c(S(=O)(=O)c2c([H])c([H])c3c(c2[H])c2c(n3[H])C([H])([H])C([H])([H])C([H])(N([H])[H])C2([H])[H])c([H])c1[H]


 26 29  0  0  0  0  0  0  0  0999 V2000
    4.3383  -49.7132  -26.0900 N   0  0  0  0  0  0  0  0  0  0  0  0
    3.1681  -50.5809  -26.1967 C   0  0  0  0  0  0  0  0  0  0  0  0
    3.1767  -51.2205  -27.5373 C   0  0  0  0  0  0  0  0  0  0  0  0
    2.6479  -52.6176  -27.5865 C   0  0  0  0  0  0  0  0  0  0  0  0
    1.8337  -53.0032  -26.4212 C   0  0  0  0  0  0  0  0  0  0  0  0
    0.8032  -53.8419  -26.3116 N   0  0  0  0  0  0  0  0  0  0  0  0
    0.3731  -53.8814  -25.0526 C   0  0  0  0  0  0  0  0  0  0  0  0
   -0.6549  -54.5814  -24.4100 C   0  0  0  0  0  0  0  0  0  0  0  0
   -0.8124  -54.3679  -23.0586 C   0  0  0  0  0  0  0  0  0  0  0  0
   -0.0226  -53.5186  -22.3360 C   0  0  0  0  0  0  0  0  0  0  0  0
    0.9878  -52.8323  -22.9743 C   0  0  0  0  0  0  0  0  0  0  0  0
    1.1600  -53.0328  -24.3231 C   0  0  0  0  0  0  0  0  0  0  0  0
    2.0775  -52.4810  -25.1819 C   0  0  0  0  0  0  0  0  0  0  0  0
    3.1872  -51.5118  -25.0395 C   0  0  0  0  0  0  0  0  0  0  0  0
    4.5950  -49.5983  -25.0993 H   0  0  0  0  0  0  0  0  0  0  0  0
    4.2018  -48.8320  -26.6154 H   0  0  0  0  0  0  0  0  0  0  0  0
    0.3590  -54.4119  -27.0787 H   0  0  0  0  0  0  0  0  0  0  0  0
   -0.2696  -53.2872  -20.6207 S   0  0  0  0  0  0  0  0  0  0  0  0
    0.4410  -54.3741  -19.8880 O   0  0  0  0  0  0  0  0  0  0  0  0
   -1.7396  -53.3744  -20.3331 O   0  0  0  0  0  0  0  0  0  0  0  0
    0.3569  -51.7065  -20.2091 C   0  0  0  0  0  0  0  0  0  0  0  0
    0.1512  -50.6525  -21.0643 C   0  0  0  0  0  0  0  0  0  0  0  0
    0.6094  -49.3712  -20.8206 C   0  0  0  0  0  0  0  0  0  0  0  0
    1.3092  -49.1695  -19.6452 C   0  0  0  0  0  0  0  0  0  0  0  0
    1.5320  -50.2152  -18.7626 C   0  0  0  0  0  0  0  0  0  0  0  0
    1.0553  -51.4703  -19.0517 C   0  0  0  0  0  0  0  0  0  0  0  0
  1  2  1  0  0  0
  2  3  1  0  0  0
  3  4  1  0  0  0
  4  5  1  0  0  0
  5  6  1  0  0  0
  6  7  1  0  0  0
  7  8  2  0  0  0
  8  9  1  0  0  0
  9 10  2  0  0  0
 10 18  1  0  0  0
 18 19  2  0  0  0
 18 20  2  0  0  0
 18 21  1  0  0  0
 21 22  2  0  0  0
 22 23  1  0  0  0
 23 24  2  0  0  0
 24 25  1  0  0  0
 25 26  2  0  0  0
 10 11  1  0  0  0
 11 12  2  0  0  0
 12 13  1  0  0  0
 13 14  1  0  0  0
 14  2  1  0  0  0
 13  5  2  0  0  0
 12  7  1  0  0  0
 26 21  1  0  0  0
  1 15  1  0  0  0
  1 16  1  0  0  0
  6 17  1  0  0  0
M  END
> <minimizedAffinity>
-7.51853

> <CNNscore>
0.4365669787

> <CNNaffinity>
6.2070469856

> <CNN_VS>
2.7097916603

> <CNNaffinity_variance>
0.3295756876

$$$$
[H]c1c([H])c([H])c(S(=O)(=O)c2c([H])c([H])c3c(c2[H])c2c(n3[H])C([H])([H])C([H])([H])C([H])(N([H])[H])C2([H])[H])c([H])c1[H]


 26 29  0  0  0  0  0  0  0  0999 V2000
    1.2608  -51.3391  -26.0200 N   0  0  0  0  0  0  0  0  0  0  0  0
    0.3860  -51.7903  -24.9406 C   0  0  0  0  0  0  0  0  0  0  0  0
   -0.4164  -52.9389  -25.4337 C   0  0  0  0  0  0  0  0  0  0  0  0
   -0.7200  -53.9938  -24.4193 C   0  0  0  0  0  0  0  0  0  0  0  0
   -0.5463  -53.5638  -23.0213 C   0  0  0  0  0  0  0  0  0  0  0  0
   -1.1780  -53.9323  -21.9066 N   0  0  0  0  0  0  0  0  0  0  0  0
   -0.6849  -53.2759  -20.8590 C   0  0  0  0  0  0  0  0  0  0  0  0
   -0.9824  -53.2874  -19.4911 C   0  0  0  0  0  0  0  0  0  0  0  0
   -0.2464  -52.4524  -18.6801 C   0  0  0  0  0  0  0  0  0  0  0  0
    0.7408  -51.6312  -19.1471 C   0  0  0  0  0  0  0  0  0  0  0  0
    1.0291  -51.6245  -20.4948 C   0  0  0  0  0  0  0  0  0  0  0  0
    0.3048  -52.4514  -21.3197 C   0  0  0  0  0  0  0  0  0  0  0  0
    0.3924  -52.6317  -22.6776 C   0  0  0  0  0  0  0  0  0  0  0  0
    1.2351  -52.0614  -23.7526 C   0  0  0  0  0  0  0  0  0  0  0  0
    2.0858  -50.8676  -25.6228 H   0  0  0  0  0  0  0  0  0  0  0  0
    0.7364  -50.7918  -26.7246 H   0  0  0  0  0  0  0  0  0  0  0  0
   -1.9583  -54.6351  -21.8171 H   0  0  0  0  0  0  0  0  0  0  0  0
    1.6430  -50.5915  -18.0691 S   0  0  0  0  0  0  0  0  0  0  0  0
    1.8339  -49.2704  -18.7334 O   0  0  0  0  0  0  0  0  0  0  0  0
    2.9830  -51.2158  -17.8127 O   0  0  0  0  0  0  0  0  0  0  0  0
    0.7243  -50.4487  -16.5872 C   0  0  0  0  0  0  0  0  0  0  0  0
   -0.2483  -49.4854  -16.4832 C   0  0  0  0  0  0  0  0  0  0  0  0
   -1.0216  -49.3004  -15.3524 C   0  0  0  0  0  0  0  0  0  0  0  0
   -0.7811  -50.1451  -14.2843 C   0  0  0  0  0  0  0  0  0  0  0  0
    0.1947  -51.1270  -14.3609 C   0  0  0  0  0  0  0  0  0  0  0  0
    0.9361  -51.2694  -15.5080 C   0  0  0  0  0  0  0  0  0  0  0  0
  1  2  1  0  0  0
  2  3  1  0  0  0
  3  4  1  0  0  0
  4  5  1  0  0  0
  5  6  1  0  0  0
  6  7  1  0  0  0
  7  8  2  0  0  0
  8  9  1  0  0  0
  9 10  2  0  0  0
 10 18  1  0  0  0
 18 19  2  0  0  0
 18 20  2  0  0  0
 18 21  1  0  0  0
 21 22  2  0  0  0
 22 23  1  0  0  0
 23 24  2  0  0  0
 24 25  1  0  0  0
 25 26  2  0  0  0
 10 11  1  0  0  0
 11 12  2  0  0  0
 12 13  1  0  0  0
 13 14  1  0  0  0
 14  2  1  0  0  0
 13  5  2  0  0  0
 12  7  1  0  0  0
 26 21  1  0  0  0
  1 15  1  0  0  0
  1 16  1  0  0  0
  6 17  1  0  0  0
M  END
> <minimizedAffinity>
-7.15501

> <CNNscore>
0.3571930528

> <CNNaffinity>
5.8781838417

> <CNN_VS>
2.0996463299

> <CNNaffinity_variance>
0.1272177398

$$$$
[H]c1c([H])c([H])c(S(=O)(=O)c2c([H])c([H])c3c(c2[H])c2c(n3[H])C([H])([H])C([H])([H])C([H])(N([H])[H])C2([H])[H])c([H])c1[H]


 26 29  0  0  0  0  0  0  0  0999 V2000
   -1.4858  -55.2845  -23.7776 N   0  0  0  0  0  0  0  0  0  0  0  0
   -0.4529  -54.2659  -23.9488 C   0  0  0  0  0  0  0  0  0  0  0  0
   -0.4989  -53.7795  -25.3515 C   0  0  0  0  0  0  0  0  0  0  0  0
   -0.1802  -52.3315  -25.5407 C   0  0  0  0  0  0  0  0  0  0  0  0
    0.5181  -51.7069  -24.4042 C   0  0  0  0  0  0  0  0  0  0  0  0
    1.4081  -50.7153  -24.3609 N   0  0  0  0  0  0  0  0  0  0  0  0
    1.7740  -50.4791  -23.1032 C   0  0  0  0  0  0  0  0  0  0  0  0
    2.6594  -49.5680  -22.5150 C   0  0  0  0  0  0  0  0  0  0  0  0
    2.7893  -49.6120  -21.1447 C   0  0  0  0  0  0  0  0  0  0  0  0
    2.1035  -50.4901  -20.3537 C   0  0  0  0  0  0  0  0  0  0  0  0
    1.2333  -51.3845  -20.9386 C   0  0  0  0  0  0  0  0  0  0  0  0
    1.0906  -51.3554  -22.3052 C   0  0  0  0  0  0  0  0  0  0  0  0
    0.3017  -52.1267  -23.1217 C   0  0  0  0  0  0  0  0  0  0  0  0
   -0.6580  -53.2321  -22.9022 C   0  0  0  0  0  0  0  0  0  0  0  0
   -1.7645  -55.3319  -22.7872 H   0  0  0  0  0  0  0  0  0  0  0  0
   -1.1987  -56.1851  -24.1988 H   0  0  0  0  0  0  0  0  0  0  0  0
    1.7955  -50.1686  -25.1744 H   0  0  0  0  0  0  0  0  0  0  0  0
    2.3091  -50.4998  -18.6175 S   0  0  0  0  0  0  0  0  0  0  0  0
    2.6383  -49.1159  -18.1708 O   0  0  0  0  0  0  0  0  0  0  0  0
    3.4477  -51.4151  -18.2757 O   0  0  0  0  0  0  0  0  0  0  0  0
    0.8124  -51.0721  -17.9153 C   0  0  0  0  0  0  0  0  0  0  0  0
    0.1922  -52.1749  -18.4482 C   0  0  0  0  0  0  0  0  0  0  0  0
   -0.9909  -52.6962  -17.9587 C   0  0  0  0  0  0  0  0  0  0  0  0
   -1.5575  -52.0524  -16.8740 C   0  0  0  0  0  0  0  0  0  0  0  0
   -0.9534  -50.9366  -16.3151 C   0  0  0  0  0  0  0  0  0  0  0  0
    0.2223  -50.4581  -16.8393 C   0  0  0  0  0  0  0  0  0  0  0  0
  1  2  1  0  0  0
  2  3  1  0  0  0
  3  4  1  0  0  0
  4  5  1  0  0  0
  5  6  1  0  0  0
  6  7  1  0  0  0
  7  8  2  0  0  0
  8  9  1  0  0  0
  9 10  2  0  0  0
 10 18  1  0  0  0
 18 19  2  0  0  0
 18 20  2  0  0  0
 18 21  1  0  0  0
 21 22  2  0  0  0
 22 23  1  0  0  0
 23 24  2  0  0  0
 24 25  1  0  0  0
 25 26  2  0  0  0
 10 11  1  0  0  0
 11 12  2  0  0  0
 12 13  1  0  0  0
 13 14  1  0  0  0
 14  2  1  0  0  0
 13  5  2  0  0  0
 12  7  1  0  0  0
 26 21  1  0  0  0
  1 15  1  0  0  0
  1 16  1  0  0  0
  6 17  1  0  0  0
M  END
> <minimizedAffinity>
-7.48552

> <CNNscore>
0.3077487051

> <CNNaffinity>
6.1418232918

> <CNN_VS>
1.8901381493

> <CNNaffinity_variance>
0.2045108527

$$$$
[H]c1c([H])c([H])c(S(=O)(=O)c2c([H])c([H])c3c(c2[H])c2c(n3[H])C([H])([H])C([H])([H])C([H])(N([H])[H])C2([H])[H])c([H])c1[H]


 26 29  0  0  0  0  0  0  0  0999 V2000
   -3.2473  -52.2999  -27.7332 N   0  0  0  0  0  0  0  0  0  0  0  0
   -1.8875  -52.7983  -27.5418 C   0  0  0  0  0  0  0  0  0  0  0  0
   -1.3107  -53.1165  -28.8731 C   0  0  0  0  0  0  0  0  0  0  0  0
    0.1545  -52.8590  -29.0172 C   0  0  0  0  0  0  0  0  0  0  0  0
    0.8789  -52.7261  -27.7417 C   0  0  0  0  0  0  0  0  0  0  0  0
    2.1333  -53.0331  -27.4107 N   0  0  0  0  0  0  0  0  0  0  0  0
    2.3579  -52.7386  -26.1323 C   0  0  0  0  0  0  0  0  0  0  0  0
    3.4777  -52.8591  -25.3008 C   0  0  0  0  0  0  0  0  0  0  0  0
    3.3405  -52.4410  -23.9959 C   0  0  0  0  0  0  0  0  0  0  0  0
    2.1803  -51.9247  -23.4913 C   0  0  0  0  0  0  0  0  0  0  0  0
    1.0813  -51.8086  -24.3148 C   0  0  0  0  0  0  0  0  0  0  0  0
    1.1996  -52.2208  -25.6206 C   0  0  0  0  0  0  0  0  0  0  0  0
    0.2704  -52.2127  -26.6308 C   0  0  0  0  0  0  0  0  0  0  0  0
   -1.1441  -51.7911  -26.7425 C   0  0  0  0  0  0  0  0  0  0  0  0
   -3.5104  -51.6983  -26.9398 H   0  0  0  0  0  0  0  0  0  0  0  0
   -3.9049  -53.0722  -27.9383 H   0  0  0  0  0  0  0  0  0  0  0  0
    2.8748  -53.4492  -28.0334 H   0  0  0  0  0  0  0  0  0  0  0  0
    2.0646  -51.4098  -21.8245 S   0  0  0  0  0  0  0  0  0  0  0  0
    1.8444  -49.9355  -21.7974 O   0  0  0  0  0  0  0  0  0  0  0  0
    3.3574  -51.7308  -21.1339 O   0  0  0  0  0  0  0  0  0  0  0  0
    0.7328  -52.2808  -21.0977 C   0  0  0  0  0  0  0  0  0  0  0  0
    0.4055  -52.0459  -19.7853 C   0  0  0  0  0  0  0  0  0  0  0  0
   -0.6294  -52.6869  -19.1302 C   0  0  0  0  0  0  0  0  0  0  0  0
   -1.3567  -53.6090  -19.8602 C   0  0  0  0  0  0  0  0  0  0  0  0
   -1.0488  -53.8666  -21.1873 C   0  0  0  0  0  0  0  0  0  0  0  0
   -0.0101  -53.2023  -21.7919 C   0  0  0  0  0  0  0  0  0  0  0  0
  1  2  1  0  0  0
  2  3  1  0  0  0
  3  4  1  0  0  0
  4  5  1  0  0  0
  5  6  1  0  0  0
  6  7  1  0  0  0
  7  8  2  0  0  0
  8  9  1  0  0  0
  9 10  2  0  0  0
 10 18  1  0  0  0
 18 19  2  0  0  0
 18 20  2  0  0  0
 18 21  1  0  0  0
 21 22  2  0  0  0
 22 23  1  0  0  0
 23 24  2  0  0  0
 24 25  1  0  0  0
 25 26  2  0  0  0
 10 11  1  0  0  0
 11 12  2  0  0  0
 12 13  1  0  0  0
 13 14  1  0  0  0
 14  2  1  0  0  0
 13  5  2  0  0  0
 12  7  1  0  0  0
 26 21  1  0  0  0
  1 15  1  0  0  0
  1 16  1  0  0  0
  6 17  1  0  0  0
M  END
> <minimizedAffinity>
-9.30579

> <CNNscore>
0.3061690331

> <CNNaffinity>
6.1513571739

> <CNN_VS>
1.8833550215

> <CNNaffinity_variance>
0.2747761309

$$$$
[H]c1c([H])c([H])c(S(=O)(=O)c2c([H])c([H])c3c(c2[H])c2c(n3[H])C([H])([H])C([H])([H])C([H])(N([H])[H])C2([H])[H])c([H])c1[H]


 26 29  0  0  0  0  0  0  0  0999 V2000
   -3.5641  -52.4668  -28.0483 N   0  0  0  0  0  0  0  0  0  0  0  0
   -2.2135  -52.8807  -27.6762 C   0  0  0  0  0  0  0  0  0  0  0  0
   -1.3901  -52.9649  -28.9095 C   0  0  0  0  0  0  0  0  0  0  0  0
    0.0449  -52.5777  -28.7523 C   0  0  0  0  0  0  0  0  0  0  0  0
    0.5253  -52.5684  -27.3599 C   0  0  0  0  0  0  0  0  0  0  0  0
    1.7297  -52.8209  -26.8472 N   0  0  0  0  0  0  0  0  0  0  0  0
    1.7032  -52.6909  -25.5228 C   0  0  0  0  0  0  0  0  0  0  0  0
    2.6720  -52.8394  -24.5232 C   0  0  0  0  0  0  0  0  0  0  0  0
    2.2739  -52.6191  -23.2234 C   0  0  0  0  0  0  0  0  0  0  0  0
    0.9990  -52.2691  -22.8781 C   0  0  0  0  0  0  0  0  0  0  0  0
    0.0497  -52.1244  -23.8667 C   0  0  0  0  0  0  0  0  0  0  0  0
    0.4287  -52.3403  -25.1700 C   0  0  0  0  0  0  0  0  0  0  0  0
   -0.3115  -52.2631  -26.3233 C   0  0  0  0  0  0  0  0  0  0  0  0
   -1.7216  -51.9404  -26.6371 C   0  0  0  0  0  0  0  0  0  0  0  0
   -4.0172  -52.0037  -27.2478 H   0  0  0  0  0  0  0  0  0  0  0  0
   -4.0965  -53.2514  -28.4633 H   0  0  0  0  0  0  0  0  0  0  0  0
    2.6041  -53.0878  -27.3715 H   0  0  0  0  0  0  0  0  0  0  0  0
    0.5509  -52.0019  -21.2094 S   0  0  0  0  0  0  0  0  0  0  0  0
    1.1181  -53.1058  -20.3831 O   0  0  0  0  0  0  0  0  0  0  0  0
   -0.9458  -52.0243  -21.1065 O   0  0  0  0  0  0  0  0  0  0  0  0
    1.1882  -50.4422  -20.7384 C   0  0  0  0  0  0  0  0  0  0  0  0
    1.3744  -49.4709  -21.6905 C   0  0  0  0  0  0  0  0  0  0  0  0
    1.8720  -48.2121  -21.4095 C   0  0  0  0  0  0  0  0  0  0  0  0
    2.1908  -47.9448  -20.0908 C   0  0  0  0  0  0  0  0  0  0  0  0
    2.0131  -48.9065  -19.1080 C   0  0  0  0  0  0  0  0  0  0  0  0
    1.5151  -50.1425  -19.4398 C   0  0  0  0  0  0  0  0  0  0  0  0
  1  2  1  0  0  0
  2  3  1  0  0  0
  3  4  1  0  0  0
  4  5  1  0  0  0
  5  6  1  0  0  0
  6  7  1  0  0  0
  7  8  2  0  0  0
  8  9  1  0  0  0
  9 10  2  0  0  0
 10 18  1  0  0  0
 18 19  2  0  0  0
 18 20  2  0  0  0
 18 21  1  0  0  0
 21 22  2  0  0  0
 22 23  1  0  0  0
 23 24  2  0  0  0
 24 25  1  0  0  0
 25 26  2  0  0  0
 10 11  1  0  0  0
 11 12  2  0  0  0
 12 13  1  0  0  0
 13 14  1  0  0  0
 14  2  1  0  0  0
 13  5  2  0  0  0
 12  7  1  0  0  0
 26 21  1  0  0  0
  1 15  1  0  0  0
  1 16  1  0  0  0
  6 17  1  0  0  0
M  END
> <minimizedAffinity>
-8.47019

> <CNNscore>
0.2806648016

> <CNNaffinity>
6.1459665298

> <CNN_VS>
1.7249565125

> <CNNaffinity_variance>
0.1448961794

$$$$
[H]c1c([H])c([H])c(S(=O)(=O)c2c([H])c([H])c3c(c2[H])c2c(n3[H])C([H])([H])C([H])([H])C([H])(N([H])[H])C2([H])[H])c([H])c1[H]


 26 29  0  0  0  0  0  0  0  0999 V2000
    1.1566  -51.3592  -25.9579 N   0  0  0  0  0  0  0  0  0  0  0  0
    0.3225  -51.8032  -24.8439 C   0  0  0  0  0  0  0  0  0  0  0  0
   -0.4222  -53.0166  -25.2675 C   0  0  0  0  0  0  0  0  0  0  0  0
   -0.6539  -54.0349  -24.1983 C   0  0  0  0  0  0  0  0  0  0  0  0
   -0.4853  -53.5275  -22.8258 C   0  0  0  0  0  0  0  0  0  0  0  0
   -1.0809  -53.8741  -21.6845 N   0  0  0  0  0  0  0  0  0  0  0  0
   -0.6106  -53.1410  -20.6781 C   0  0  0  0  0  0  0  0  0  0  0  0
   -0.8886  -53.1008  -19.3067 C   0  0  0  0  0  0  0  0  0  0  0  0
   -0.1888  -52.1881  -18.5492 C   0  0  0  0  0  0  0  0  0  0  0  0
    0.7455  -51.3387  -19.0714 C   0  0  0  0  0  0  0  0  0  0  0  0
    1.0149  -51.3831  -20.4223 C   0  0  0  0  0  0  0  0  0  0  0  0
    0.3261  -52.2878  -21.1943 C   0  0  0  0  0  0  0  0  0  0  0  0
    0.4053  -52.5301  -22.5430 C   0  0  0  0  0  0  0  0  0  0  0  0
    1.2010  -51.9688  -23.6579 C   0  0  0  0  0  0  0  0  0  0  0  0
    1.9597  -50.8246  -25.5974 H   0  0  0  0  0  0  0  0  0  0  0  0
    0.5936  -50.8766  -26.6797 H   0  0  0  0  0  0  0  0  0  0  0  0
   -1.8201  -54.6128  -21.5484 H   0  0  0  0  0  0  0  0  0  0  0  0
    1.6036  -50.1997  -18.0600 S   0  0  0  0  0  0  0  0  0  0  0  0
    2.3055  -50.9558  -16.9836 O   0  0  0  0  0  0  0  0  0  0  0  0
    0.6069  -49.2650  -17.4402 O   0  0  0  0  0  0  0  0  0  0  0  0
    2.7253  -49.3308  -19.0834 C   0  0  0  0  0  0  0  0  0  0  0  0
    3.9948  -49.8206  -19.2658 C   0  0  0  0  0  0  0  0  0  0  0  0
    4.9456  -49.2015  -20.0556 C   0  0  0  0  0  0  0  0  0  0  0  0
    4.5705  -48.0278  -20.6831 C   0  0  0  0  0  0  0  0  0  0  0  0
    3.2952  -47.5097  -20.5172 C   0  0  0  0  0  0  0  0  0  0  0  0
    2.3872  -48.1639  -19.7213 C   0  0  0  0  0  0  0  0  0  0  0  0
  1  2  1  0  0  0
  2  3  1  0  0  0
  3  4  1  0  0  0
  4  5  1  0  0  0
  5  6  1  0  0  0
  6  7  1  0  0  0
  7  8  2  0  0  0
  8  9  1  0  0  0
  9 10  2  0  0  0
 10 18  1  0  0  0
 18 19  2  0  0  0
 18 20  2  0  0  0
 18 21  1  0  0  0
 21 22  2  0  0  0
 22 23  1  0  0  0
 23 24  2  0  0  0
 24 25  1  0  0  0
 25 26  2  0  0  0
 10 11  1  0  0  0
 11 12  2  0  0  0
 12 13  1  0  0  0
 13 14  1  0  0  0
 14  2  1  0  0  0
 13  5  2  0  0  0
 12  7  1  0  0  0
 26 21  1  0  0  0
  1 15  1  0  0  0
  1 16  1  0  0  0
  6 17  1  0  0  0
M  END
> <minimizedAffinity>
-6.82459

> <CNNscore>
0.2519079149

> <CNNaffinity>
5.8903799057

> <CNN_VS>
1.4838333130

> <CNNaffinity_variance>
0.1768678129

$$$$
[H]c1c([H])c(OC([H])([H])[H])c2c(c1[H])[C@]([H])(C([H])([H])N(C([H])([H])[H])C([H])([H])C([H])([H])c1c([H])c([H])c3c(c1[H])C([H])([H])N(S(=O)(=O)C([H])([H])[H])C3([H])[H])C([H])([H])C([H])([H])C2([H])[H]


 30 33  0  0  0  0  0  0  0  0999 V2000
    0.6429  -53.5238  -26.0079 N   0  0  0  0  0  0  0  0  0  0  0  0
    0.2907  -54.3001  -27.1136 C   0  0  0  0  0  0  0  0  0  0  0  0
    1.9582  -53.2252  -25.7037 C   0  0  0  0  0  0  0  0  0  0  0  0
    4.5454  -50.0244  -23.0355 C   0  0  0  0  0  0  0  0  0  0  0  0
    5.1336  -51.0811  -22.3527 C   0  0  0  0  0  0  0  0  0  0  0  0
    4.7605  -52.3803  -22.7044 C   0  0  0  0  0  0  0  0  0  0  0  0
    3.8342  -52.6467  -23.7006 C   0  0  0  0  0  0  0  0  0  0  0  0
    3.2487  -51.5924  -24.3796 C   0  0  0  0  0  0  0  0  0  0  0  0
    3.6306  -50.3280  -24.0175 C   0  0  0  0  0  0  0  0  0  0  0  0
    2.9705  -49.2338  -24.8230 C   0  0  0  0  0  0  0  0  0  0  0  0
    3.1782  -49.6123  -26.2833 C   0  0  0  0  0  0  0  0  0  0  0  0
    2.4914  -50.9187  -26.6078 C   0  0  0  0  0  0  0  0  0  0  0  0
    2.2264  -51.7758  -25.4288 C   0  0  0  0  0  0  0  0  0  0  0  0
    5.9864  -48.3148  -21.9984 C   0  0  0  0  0  0  0  0  0  0  0  0
    4.8526  -48.6829  -22.7565 O   0  0  0  0  0  0  0  0  0  0  0  0
   -0.3701  -53.1501  -25.0921 C   0  0  0  0  0  0  0  0  0  0  0  0
   -0.7324  -54.1331  -24.0297 C   0  0  0  0  0  0  0  0  0  0  0  0
   -0.4967  -53.5524  -22.6576 C   0  0  0  0  0  0  0  0  0  0  0  0
   -0.8869  -54.1662  -21.4921 C   0  0  0  0  0  0  0  0  0  0  0  0
   -0.6763  -53.6116  -20.2528 C   0  0  0  0  0  0  0  0  0  0  0  0
   -0.0448  -52.3774  -20.1207 C   0  0  0  0  0  0  0  0  0  0  0  0
    0.3459  -51.7606  -21.2704 C   0  0  0  0  0  0  0  0  0  0  0  0
    0.1305  -52.3286  -22.5339 C   0  0  0  0  0  0  0  0  0  0  0  0
    0.9891  -50.4626  -20.9330 C   0  0  0  0  0  0  0  0  0  0  0  0
    1.1000  -50.4845  -19.5098 N   0  0  0  0  0  0  0  0  0  0  0  0
    0.3196  -51.5427  -18.9631 C   0  0  0  0  0  0  0  0  0  0  0  0
    2.7308  -50.6929  -18.9812 S   0  0  0  0  0  0  0  0  0  0  0  0
    2.8589  -50.6176  -17.2171 C   0  0  0  0  0  0  0  0  0  0  0  0
    3.2013  -52.0226  -19.4967 O   0  0  0  0  0  0  0  0  0  0  0  0
    3.6061  -49.6549  -19.6467 O   0  0  0  0  0  0  0  0  0  0  0  0
 14 15  1  0  0  0
 15  4  1  0  0  0
  4  5  2  0  0  0
  5  6  1  0  0  0
  6  7  2  0  0  0
  7  8  1  0  0  0
  8  9  2  0  0  0
  9 10  1  0  0  0
 10 11  1  0  0  0
 11 12  1  0  0  0
 12 13  1  0  0  0
 13  3  1  0  0  0
  3  1  1  0  0  0
  1  2  1  0  0  0
  1 16  1  0  0  0
 16 17  1  0  0  0
 17 18  1  0  0  0
 18 19  2  0  0  0
 19 20  1  0  0  0
 20 21  2  0  0  0
 21 22  1  0  0  0
 22 23  2  0  0  0
 22 24  1  0  0  0
 24 25  1  0  0  0
 25 27  1  0  0  0
 27 28  1  0  0  0
 27 29  2  0  0  0
 27 30  2  0  0  0
 25 26  1  0  0  0
  9  4  1  0  0  0
 23 18  1  0  0  0
 13  8  1  0  0  0
 26 21  1  0  0  0
M  END
> <minimizedAffinity>
-7.42980

> <CNNscore>
0.2336433977

> <CNNaffinity>
6.2119331360

> <CNN_VS>
1.4513771534

> <CNNaffinity_variance>
0.4083347321

$$$$
[H]c1c([H])c(OC([H])([H])[H])c2c(c1[H])[C@]([H])(C([H])([H])N(C([H])([H])[H])C([H])([H])C([H])([H])c1c([H])c([H])c3c(c1[H])C([H])([H])N(S(=O)(=O)C([H])([H])[H])C3([H])[H])C([H])([H])C([H])([H])C2([H])[H]


 30 33  0  0  0  0  0  0  0  0999 V2000
   -1.0599  -53.3545  -21.4752 N   0  0  0  0  0  0  0  0  0  0  0  0
   -1.4557  -54.5860  -22.0006 C   0  0  0  0  0  0  0  0  0  0  0  0
   -0.5640  -52.3375  -22.2697 C   0  0  0  0  0  0  0  0  0  0  0  0
    1.1663  -53.0671  -26.8010 C   0  0  0  0  0  0  0  0  0  0  0  0
   -0.0970  -52.8081  -27.3165 C   0  0  0  0  0  0  0  0  0  0  0  0
   -1.1231  -52.5018  -26.4198 C   0  0  0  0  0  0  0  0  0  0  0  0
   -0.9246  -52.4479  -25.0490 C   0  0  0  0  0  0  0  0  0  0  0  0
    0.3349  -52.7066  -24.5371 C   0  0  0  0  0  0  0  0  0  0  0  0
    1.3248  -53.0041  -25.4356 C   0  0  0  0  0  0  0  0  0  0  0  0
    2.6751  -53.2448  -24.8029 C   0  0  0  0  0  0  0  0  0  0  0  0
    2.9238  -52.0504  -23.8915 C   0  0  0  0  0  0  0  0  0  0  0  0
    1.8907  -51.9840  -22.7907 C   0  0  0  0  0  0  0  0  0  0  0  0
    0.6340  -52.7089  -23.0913 C   0  0  0  0  0  0  0  0  0  0  0  0
    3.1833  -52.4049  -28.0534 C   0  0  0  0  0  0  0  0  0  0  0  0
    2.2631  -53.3846  -27.6184 O   0  0  0  0  0  0  0  0  0  0  0  0
   -1.0341  -53.1947  -20.0687 C   0  0  0  0  0  0  0  0  0  0  0  0
    0.2551  -52.7701  -19.4491 C   0  0  0  0  0  0  0  0  0  0  0  0
    0.0153  -51.7876  -18.3300 C   0  0  0  0  0  0  0  0  0  0  0  0
    0.6055  -50.5488  -18.2629 C   0  0  0  0  0  0  0  0  0  0  0  0
    0.3852  -49.6753  -17.2254 C   0  0  0  0  0  0  0  0  0  0  0  0
   -0.4634  -50.0140  -16.1746 C   0  0  0  0  0  0  0  0  0  0  0  0
   -1.0534  -51.2402  -16.2316 C   0  0  0  0  0  0  0  0  0  0  0  0
   -0.8277  -52.1297  -17.2914 C   0  0  0  0  0  0  0  0  0  0  0  0
   -1.9105  -51.4253  -15.0301 C   0  0  0  0  0  0  0  0  0  0  0  0
   -1.9065  -50.1466  -14.3949 N   0  0  0  0  0  0  0  0  0  0  0  0
   -0.8950  -49.3138  -14.9526 C   0  0  0  0  0  0  0  0  0  0  0  0
   -3.4201  -49.3302  -14.5526 S   0  0  0  0  0  0  0  0  0  0  0  0
   -4.6278  -50.3455  -15.3554 C   0  0  0  0  0  0  0  0  0  0  0  0
   -3.8703  -48.9524  -13.1707 O   0  0  0  0  0  0  0  0  0  0  0  0
   -3.2085  -48.0283  -15.2921 O   0  0  0  0  0  0  0  0  0  0  0  0
 14 15  1  0  0  0
 15  4  1  0  0  0
  4  5  2  0  0  0
  5  6  1  0  0  0
  6  7  2  0  0  0
  7  8  1  0  0  0
  8  9  2  0  0  0
  9 10  1  0  0  0
 10 11  1  0  0  0
 11 12  1  0  0  0
 12 13  1  0  0  0
 13  3  1  0  0  0
  3  1  1  0  0  0
  1  2  1  0  0  0
  1 16  1  0  0  0
 16 17  1  0  0  0
 17 18  1  0  0  0
 18 19  2  0  0  0
 19 20  1  0  0  0
 20 21  2  0  0  0
 21 22  1  0  0  0
 22 23  2  0  0  0
 22 24  1  0  0  0
 24 25  1  0  0  0
 25 27  1  0  0  0
 27 28  1  0  0  0
 27 29  2  0  0  0
 27 30  2  0  0  0
 25 26  1  0  0  0
  9  4  1  0  0  0
 23 18  1  0  0  0
 13  8  1  0  0  0
 26 21  1  0  0  0
M  END
> <minimizedAffinity>
-8.18770

> <CNNscore>
0.2284850627

> <CNNaffinity>
6.0577368736

> <CNN_VS>
1.3841023445

> <CNNaffinity_variance>
0.0727006719

$$$$
[H]c1c([H])c(OC([H])([H])[H])c2c(c1[H])[C@]([H])(C([H])([H])N(C([H])([H])[H])C([H])([H])C([H])([H])c1c([H])c([H])c3c(c1[H])C([H])([H])N(S(=O)(=O)C([H])([H])[H])C3([H])[H])C([H])([H])C([H])([H])C2([H])[H]


 30 33  0  0  0  0  0  0  0  0999 V2000
    1.4493  -50.8325  -18.8709 N   0  0  0  0  0  0  0  0  0  0  0  0
    0.4734  -50.2728  -18.0440 C   0  0  0  0  0  0  0  0  0  0  0  0
    2.5208  -50.1011  -19.3488 C   0  0  0  0  0  0  0  0  0  0  0  0
    3.5215  -48.7763  -23.9642 C   0  0  0  0  0  0  0  0  0  0  0  0
    3.0250  -47.5066  -23.6989 C   0  0  0  0  0  0  0  0  0  0  0  0
    2.5427  -47.2442  -22.4147 C   0  0  0  0  0  0  0  0  0  0  0  0
    2.5435  -48.1972  -21.4081 C   0  0  0  0  0  0  0  0  0  0  0  0
    3.0382  -49.4620  -21.6745 C   0  0  0  0  0  0  0  0  0  0  0  0
    3.5059  -49.6954  -22.9404 C   0  0  0  0  0  0  0  0  0  0  0  0
    4.0554  -51.0877  -23.1440 C   0  0  0  0  0  0  0  0  0  0  0  0
    5.0406  -51.3144  -22.0051 C   0  0  0  0  0  0  0  0  0  0  0  0
    4.3406  -51.2731  -20.6665 C   0  0  0  0  0  0  0  0  0  0  0  0
    3.0465  -50.5520  -20.6787 C   0  0  0  0  0  0  0  0  0  0  0  0
    3.2237  -49.1401  -26.3837 C   0  0  0  0  0  0  0  0  0  0  0  0
    4.0282  -49.1394  -25.2224 O   0  0  0  0  0  0  0  0  0  0  0  0
    1.2578  -52.1518  -19.3478 C   0  0  0  0  0  0  0  0  0  0  0  0
   -0.1449  -52.5952  -19.5974 C   0  0  0  0  0  0  0  0  0  0  0  0
   -0.2880  -53.1687  -20.9851 C   0  0  0  0  0  0  0  0  0  0  0  0
   -1.1383  -54.2009  -21.3000 C   0  0  0  0  0  0  0  0  0  0  0  0
   -1.2413  -54.7190  -22.5685 C   0  0  0  0  0  0  0  0  0  0  0  0
   -0.4726  -54.2102  -23.6123 C   0  0  0  0  0  0  0  0  0  0  0  0
    0.3737  -53.1868  -23.3104 C   0  0  0  0  0  0  0  0  0  0  0  0
    0.4768  -52.6592  -22.0156 C   0  0  0  0  0  0  0  0  0  0  0  0
    1.1099  -52.7843  -24.5385 C   0  0  0  0  0  0  0  0  0  0  0  0
    0.4804  -53.5250  -25.5844 N   0  0  0  0  0  0  0  0  0  0  0  0
   -0.3599  -54.5394  -25.0436 C   0  0  0  0  0  0  0  0  0  0  0  0
   -0.4812  -52.5236  -26.6115 S   0  0  0  0  0  0  0  0  0  0  0  0
   -0.0410  -52.7235  -28.3145 C   0  0  0  0  0  0  0  0  0  0  0  0
   -1.9176  -52.8963  -26.3816 O   0  0  0  0  0  0  0  0  0  0  0  0
   -0.3486  -51.0838  -26.1686 O   0  0  0  0  0  0  0  0  0  0  0  0
 14 15  1  0  0  0
 15  4  1  0  0  0
  4  5  2  0  0  0
  5  6  1  0  0  0
  6  7  2  0  0  0
  7  8  1  0  0  0
  8  9  2  0  0  0
  9 10  1  0  0  0
 10 11  1  0  0  0
 11 12  1  0  0  0
 12 13  1  0  0  0
 13  3  1  0  0  0
  3  1  1  0  0  0
  1  2  1  0  0  0
  1 16  1  0  0  0
 16 17  1  0  0  0
 17 18  1  0  0  0
 18 19  2  0  0  0
 19 20  1  0  0  0
 20 21  2  0  0  0
 21 22  1  0  0  0
 22 23  2  0  0  0
 22 24  1  0  0  0
 24 25  1  0  0  0
 25 27  1  0  0  0
 27 28  1  0  0  0
 27 29  2  0  0  0
 27 30  2  0  0  0
 25 26  1  0  0  0
  9  4  1  0  0  0
 23 18  1  0  0  0
 13  8  1  0  0  0
 26 21  1  0  0  0
M  END
> <minimizedAffinity>
-7.41770

> <CNNscore>
0.2226054966

> <CNNaffinity>
6.3406476974

> <CNN_VS>
1.4114630222

> <CNNaffinity_variance>
0.2705118954

$$$$
[H]c1c([H])c(OC([H])([H])[H])c2c(c1[H])[C@]([H])(C([H])([H])N(C([H])([H])[H])C([H])([H])C([H])([H])c1c([H])c([H])c3c(c1[H])C([H])([H])N(S(=O)(=O)C([H])([H])[H])C3([H])[H])C([H])([H])C([H])([H])C2([H])[H]


 30 33  0  0  0  0  0  0  0  0999 V2000
    1.2772  -52.9086  -24.7386 N   0  0  0  0  0  0  0  0  0  0  0  0
    0.8685  -53.4982  -25.9363 C   0  0  0  0  0  0  0  0  0  0  0  0
    0.4163  -52.1719  -23.9463 C   0  0  0  0  0  0  0  0  0  0  0  0
    0.8649  -50.8011  -19.2582 C   0  0  0  0  0  0  0  0  0  0  0  0
    1.2174  -49.5236  -19.6738 C   0  0  0  0  0  0  0  0  0  0  0  0
    1.2682  -49.2691  -21.0461 C   0  0  0  0  0  0  0  0  0  0  0  0
    0.9813  -50.2374  -21.9957 C   0  0  0  0  0  0  0  0  0  0  0  0
    0.6306  -51.5099  -21.5797 C   0  0  0  0  0  0  0  0  0  0  0  0
    0.5873  -51.7354  -20.2295 C   0  0  0  0  0  0  0  0  0  0  0  0
    0.1687  -53.1377  -19.8551 C   0  0  0  0  0  0  0  0  0  0  0  0
   -1.1152  -53.4067  -20.6286 C   0  0  0  0  0  0  0  0  0  0  0  0
   -0.8683  -53.3686  -22.1190 C   0  0  0  0  0  0  0  0  0  0  0  0
    0.3440  -52.6151  -22.5157 C   0  0  0  0  0  0  0  0  0  0  0  0
   -0.0875  -50.5037  -17.0044 C   0  0  0  0  0  0  0  0  0  0  0  0
    0.7858  -51.1573  -17.9022 O   0  0  0  0  0  0  0  0  0  0  0  0
    2.6508  -52.9490  -24.3977 C   0  0  0  0  0  0  0  0  0  0  0  0
    3.6227  -52.4178  -25.3975 C   0  0  0  0  0  0  0  0  0  0  0  0
    3.6686  -50.9107  -25.3538 C   0  0  0  0  0  0  0  0  0  0  0  0
    3.1157  -50.1023  -26.3173 C   0  0  0  0  0  0  0  0  0  0  0  0
    3.1830  -48.7310  -26.2658 C   0  0  0  0  0  0  0  0  0  0  0  0
    3.8279  -48.0866  -25.2130 C   0  0  0  0  0  0  0  0  0  0  0  0
    4.3795  -48.8792  -24.2526 C   0  0  0  0  0  0  0  0  0  0  0  0
    4.3092  -50.2783  -24.3068 C   0  0  0  0  0  0  0  0  0  0  0  0
    5.0249  -48.0209  -23.2235 C   0  0  0  0  0  0  0  0  0  0  0  0
    4.6329  -46.6940  -23.5761 N   0  0  0  0  0  0  0  0  0  0  0  0
    4.0608  -46.6708  -24.8798 C   0  0  0  0  0  0  0  0  0  0  0  0
    3.4794  -46.0349  -22.4728 S   0  0  0  0  0  0  0  0  0  0  0  0
    3.8087  -46.5379  -20.8077 C   0  0  0  0  0  0  0  0  0  0  0  0
    3.5395  -44.5401  -22.6032 O   0  0  0  0  0  0  0  0  0  0  0  0
    2.0881  -46.4353  -22.9093 O   0  0  0  0  0  0  0  0  0  0  0  0
 14 15  1  0  0  0
 15  4  1  0  0  0
  4  5  2  0  0  0
  5  6  1  0  0  0
  6  7  2  0  0  0
  7  8  1  0  0  0
  8  9  2  0  0  0
  9 10  1  0  0  0
 10 11  1  0  0  0
 11 12  1  0  0  0
 12 13  1  0  0  0
 13  3  1  0  0  0
  3  1  1  0  0  0
  1  2  1  0  0  0
  1 16  1  0  0  0
 16 17  1  0  0  0
 17 18  1  0  0  0
 18 19  2  0  0  0
 19 20  1  0  0  0
 20 21  2  0  0  0
 21 22  1  0  0  0
 22 23  2  0  0  0
 22 24  1  0  0  0
 24 25  1  0  0  0
 25 27  1  0  0  0
 27 28  1  0  0  0
 27 29  2  0  0  0
 27 30  2  0  0  0
 25 26  1  0  0  0
  9  4  1  0  0  0
 23 18  1  0  0  0
 13  8  1  0  0  0
 26 21  1  0  0  0
M  END
> <minimizedAffinity>
-7.02465

> <CNNscore>
0.1856116652

> <CNNaffinity>
5.9075345993

> <CNN_VS>
1.0965073109

> <CNNaffinity_variance>
0.3864315450

$$$$
[H]c1c([H])c(OC([H])([H])[H])c2c(c1[H])[C@]([H])(C([H])([H])N(C([H])([H])[H])C([H])([H])C([H])([H])c1c([H])c([H])c3c(c1[H])C([H])([H])N(S(=O)(=O)C([H])([H])[H])C3([H])[H])C([H])([H])C([H])([H])C2([H])[H]


 30 33  0  0  0  0  0  0  0  0999 V2000
   -0.6486  -53.0225  -21.3160 N   0  0  0  0  0  0  0  0  0  0  0  0
   -1.7356  -53.6791  -20.7357 C   0  0  0  0  0  0  0  0  0  0  0  0
    0.0579  -53.5586  -22.3766 C   0  0  0  0  0  0  0  0  0  0  0  0
    2.6959  -51.0381  -25.6550 C   0  0  0  0  0  0  0  0  0  0  0  0
    3.8433  -51.2916  -24.9146 C   0  0  0  0  0  0  0  0  0  0  0  0
    3.7183  -52.0449  -23.7452 C   0  0  0  0  0  0  0  0  0  0  0  0
    2.5019  -52.5425  -23.3045 C   0  0  0  0  0  0  0  0  0  0  0  0
    1.3595  -52.2886  -24.0434 C   0  0  0  0  0  0  0  0  0  0  0  0
    1.5070  -51.5483  -25.1861 C   0  0  0  0  0  0  0  0  0  0  0  0
    0.2216  -51.3392  -25.9515 C   0  0  0  0  0  0  0  0  0  0  0  0
   -0.3922  -52.7232  -26.1152 C   0  0  0  0  0  0  0  0  0  0  0  0
   -0.7338  -53.3271  -24.7727 C   0  0  0  0  0  0  0  0  0  0  0  0
    0.0160  -52.7448  -23.6353 C   0  0  0  0  0  0  0  0  0  0  0  0
    3.7277  -49.3441  -27.1180 C   0  0  0  0  0  0  0  0  0  0  0  0
    2.7160  -50.2912  -26.8439 O   0  0  0  0  0  0  0  0  0  0  0  0
   -0.1691  -51.8376  -20.7072 C   0  0  0  0  0  0  0  0  0  0  0  0
    0.8479  -51.9842  -19.6253 C   0  0  0  0  0  0  0  0  0  0  0  0
    0.4486  -51.1965  -18.4024 C   0  0  0  0  0  0  0  0  0  0  0  0
    0.9523  -49.9555  -18.0963 C   0  0  0  0  0  0  0  0  0  0  0  0
    0.5864  -49.2620  -16.9680 C   0  0  0  0  0  0  0  0  0  0  0  0
   -0.3300  -49.7974  -16.0664 C   0  0  0  0  0  0  0  0  0  0  0  0
   -0.8352  -51.0274  -16.3608 C   0  0  0  0  0  0  0  0  0  0  0  0
   -0.4609  -51.7331  -17.5129 C   0  0  0  0  0  0  0  0  0  0  0  0
   -1.7829  -51.4346  -15.2891 C   0  0  0  0  0  0  0  0  0  0  0  0
   -1.9151  -50.2690  -14.4752 N   0  0  0  0  0  0  0  0  0  0  0  0
   -0.9116  -49.3133  -14.8026 C   0  0  0  0  0  0  0  0  0  0  0  0
   -3.4564  -49.5118  -14.6578 S   0  0  0  0  0  0  0  0  0  0  0  0
   -4.5898  -50.5452  -15.5417 C   0  0  0  0  0  0  0  0  0  0  0  0
   -3.9708  -49.2072  -13.2803 O   0  0  0  0  0  0  0  0  0  0  0  0
   -3.2760  -48.1743  -15.3400 O   0  0  0  0  0  0  0  0  0  0  0  0
 14 15  1  0  0  0
 15  4  1  0  0  0
  4  5  2  0  0  0
  5  6  1  0  0  0
  6  7  2  0  0  0
  7  8  1  0  0  0
  8  9  2  0  0  0
  9 10  1  0  0  0
 10 11  1  0  0  0
 11 12  1  0  0  0
 12 13  1  0  0  0
 13  3  1  0  0  0
  3  1  1  0  0  0
  1  2  1  0  0  0
  1 16  1  0  0  0
 16 17  1  0  0  0
 17 18  1  0  0  0
 18 19  2  0  0  0
 19 20  1  0  0  0
 20 21  2  0  0  0
 21 22  1  0  0  0
 22 23  2  0  0  0
 22 24  1  0  0  0
 24 25  1  0  0  0
 25 27  1  0  0  0
 27 28  1  0  0  0
 27 29  2  0  0  0
 27 30  2  0  0  0
 25 26  1  0  0  0
  9  4  1  0  0  0
 23 18  1  0  0  0
 13  8  1  0  0  0
 26 21  1  0  0  0
M  END
> <minimizedAffinity>
-7.59648

> <CNNscore>
0.1673190147

> <CNNaffinity>
5.9353241920

> <CNN_VS>
0.9930925965

> <CNNaffinity_variance>
0.1920598745

$$$$
[H]c1c([H])c(OC([H])([H])[H])c2c(c1[H])[C@]([H])(C([H])([H])N(C([H])([H])[H])C([H])([H])C([H])([H])c1c([H])c([H])c3c(c1[H])C([H])([H])N(S(=O)(=O)C([H])([H])[H])C3([H])[H])C([H])([H])C([H])([H])C2([H])[H]


 30 33  0  0  0  0  0  0  0  0999 V2000
    0.5851  -53.4537  -25.2084 N   0  0  0  0  0  0  0  0  0  0  0  0
    0.0958  -54.6018  -25.8343 C   0  0  0  0  0  0  0  0  0  0  0  0
   -0.1581  -52.7419  -24.2851 C   0  0  0  0  0  0  0  0  0  0  0  0
    0.9608  -51.2943  -19.7341 C   0  0  0  0  0  0  0  0  0  0  0  0
    1.1640  -50.0030  -20.2034 C   0  0  0  0  0  0  0  0  0  0  0  0
    0.9763  -49.7614  -21.5662 C   0  0  0  0  0  0  0  0  0  0  0  0
    0.5981  -50.7556  -22.4551 C   0  0  0  0  0  0  0  0  0  0  0  0
    0.3966  -52.0418  -21.9857 C   0  0  0  0  0  0  0  0  0  0  0  0
    0.5862  -52.2542  -20.6461 C   0  0  0  0  0  0  0  0  0  0  0  0
    0.3188  -53.6745  -20.2065 C   0  0  0  0  0  0  0  0  0  0  0  0
   -1.0549  -54.0275  -20.7608 C   0  0  0  0  0  0  0  0  0  0  0  0
   -1.0555  -53.9917  -22.2716 C   0  0  0  0  0  0  0  0  0  0  0  0
    0.0290  -53.1725  -22.8611 C   0  0  0  0  0  0  0  0  0  0  0  0
    0.1640  -51.3049  -17.4018 C   0  0  0  0  0  0  0  0  0  0  0  0
    1.1240  -51.6393  -18.3828 O   0  0  0  0  0  0  0  0  0  0  0  0
    1.8258  -52.9242  -25.6383 C   0  0  0  0  0  0  0  0  0  0  0  0
    3.0137  -53.1637  -24.7676 C   0  0  0  0  0  0  0  0  0  0  0  0
    3.5372  -51.8659  -24.2045 C   0  0  0  0  0  0  0  0  0  0  0  0
    3.2320  -50.6310  -24.7234 C   0  0  0  0  0  0  0  0  0  0  0  0
    3.7331  -49.4617  -24.2043 C   0  0  0  0  0  0  0  0  0  0  0  0
    4.5899  -49.4770  -23.1066 C   0  0  0  0  0  0  0  0  0  0  0  0
    4.8988  -50.6965  -22.5848 C   0  0  0  0  0  0  0  0  0  0  0  0
    4.3859  -51.8883  -23.1157 C   0  0  0  0  0  0  0  0  0  0  0  0
    5.8231  -50.5144  -21.4338 C   0  0  0  0  0  0  0  0  0  0  0  0
    5.8589  -49.1015  -21.2316 N   0  0  0  0  0  0  0  0  0  0  0  0
    5.2730  -48.4225  -22.3376 C   0  0  0  0  0  0  0  0  0  0  0  0
    5.0185  -48.6212  -19.8015 S   0  0  0  0  0  0  0  0  0  0  0  0
    3.7405  -47.4494  -20.1589 C   0  0  0  0  0  0  0  0  0  0  0  0
    4.4484  -49.8634  -19.1794 O   0  0  0  0  0  0  0  0  0  0  0  0
    6.0113  -48.0727  -18.8014 O   0  0  0  0  0  0  0  0  0  0  0  0
 14 15  1  0  0  0
 15  4  1  0  0  0
  4  5  2  0  0  0
  5  6  1  0  0  0
  6  7  2  0  0  0
  7  8  1  0  0  0
  8  9  2  0  0  0
  9 10  1  0  0  0
 10 11  1  0  0  0
 11 12  1  0  0  0
 12 13  1  0  0  0
 13  3  1  0  0  0
  3  1  1  0  0  0
  1  2  1  0  0  0
  1 16  1  0  0  0
 16 17  1  0  0  0
 17 18  1  0  0  0
 18 19  2  0  0  0
 19 20  1  0  0  0
 20 21  2  0  0  0
 21 22  1  0  0  0
 22 23  2  0  0  0
 22 24  1  0  0  0
 24 25  1  0  0  0
 25 27  1  0  0  0
 27 28  1  0  0  0
 27 29  2  0  0  0
 27 30  2  0  0  0
 25 26  1  0  0  0
  9  4  1  0  0  0
 23 18  1  0  0  0
 13  8  1  0  0  0
 26 21  1  0  0  0
M  END
> <minimizedAffinity>
-6.94936

> <CNNscore>
0.1476716250

> <CNNaffinity>
6.0537185669

> <CNN_VS>
0.8939624429

> <CNNaffinity_variance>
0.2300035059

$$$$
[H]c1c([H])c(OC([H])([H])[H])c2c(c1[H])[C@]([H])(C([H])([H])N(C([H])([H])[H])C([H])([H])C([H])([H])c1c([H])c([H])c3c(c1[H])C([H])([H])N(S(=O)(=O)C([H])([H])[H])C3([H])[H])C([H])([H])C([H])([H])C2([H])[H]


 30 33  0  0  0  0  0  0  0  0999 V2000
   -0.4800  -53.3271  -21.1397 N   0  0  0  0  0  0  0  0  0  0  0  0
   -1.4762  -54.2700  -21.4002 C   0  0  0  0  0  0  0  0  0  0  0  0
    0.2902  -53.3640  -19.9921 C   0  0  0  0  0  0  0  0  0  0  0  0
   -0.4402  -50.0875  -16.4158 C   0  0  0  0  0  0  0  0  0  0  0  0
   -1.4052  -50.9188  -15.8621 C   0  0  0  0  0  0  0  0  0  0  0  0
   -1.6724  -52.1321  -16.5002 C   0  0  0  0  0  0  0  0  0  0  0  0
   -1.0142  -52.5295  -17.6535 C   0  0  0  0  0  0  0  0  0  0  0  0
   -0.0532  -51.6996  -18.2041 C   0  0  0  0  0  0  0  0  0  0  0  0
    0.1918  -50.5157  -17.5606 C   0  0  0  0  0  0  0  0  0  0  0  0
    1.2726  -49.6798  -18.2049 C   0  0  0  0  0  0  0  0  0  0  0  0
    2.4634  -50.6116  -18.3861 C   0  0  0  0  0  0  0  0  0  0  0  0
    2.1243  -51.7491  -19.3214 C   0  0  0  0  0  0  0  0  0  0  0  0
    0.6734  -52.0200  -19.4488 C   0  0  0  0  0  0  0  0  0  0  0  0
   -1.0735  -47.9675  -15.3297 C   0  0  0  0  0  0  0  0  0  0  0  0
   -0.0993  -48.8480  -15.8507 O   0  0  0  0  0  0  0  0  0  0  0  0
   -0.3517  -52.2187  -22.0112 C   0  0  0  0  0  0  0  0  0  0  0  0
   -0.0970  -52.5046  -23.4534 C   0  0  0  0  0  0  0  0  0  0  0  0
    1.3776  -52.4333  -23.7627 C   0  0  0  0  0  0  0  0  0  0  0  0
    1.9331  -52.8794  -24.9375 C   0  0  0  0  0  0  0  0  0  0  0  0
    3.2819  -52.8195  -25.1922 C   0  0  0  0  0  0  0  0  0  0  0  0
    4.1637  -52.2931  -24.2516 C   0  0  0  0  0  0  0  0  0  0  0  0
    3.6229  -51.8482  -23.0835 C   0  0  0  0  0  0  0  0  0  0  0  0
    2.2462  -51.9097  -22.8258 C   0  0  0  0  0  0  0  0  0  0  0  0
    4.7095  -51.3328  -22.2082 C   0  0  0  0  0  0  0  0  0  0  0  0
    5.8687  -51.3466  -23.0417 N   0  0  0  0  0  0  0  0  0  0  0  0
    5.6229  -52.0936  -24.2288 C   0  0  0  0  0  0  0  0  0  0  0  0
    6.3660  -49.7579  -23.5014 S   0  0  0  0  0  0  0  0  0  0  0  0
    8.0153  -49.4092  -22.9610 C   0  0  0  0  0  0  0  0  0  0  0  0
    6.2623  -49.6724  -24.9970 O   0  0  0  0  0  0  0  0  0  0  0  0
    5.3783  -48.7504  -22.9573 O   0  0  0  0  0  0  0  0  0  0  0  0
 14 15  1  0  0  0
 15  4  1  0  0  0
  4  5  2  0  0  0
  5  6  1  0  0  0
  6  7  2  0  0  0
  7  8  1  0  0  0
  8  9  2  0  0  0
  9 10  1  0  0  0
 10 11  1  0  0  0
 11 12  1  0  0  0
 12 13  1  0  0  0
 13  3  1  0  0  0
  3  1  1  0  0  0
  1  2  1  0  0  0
  1 16  1  0  0  0
 16 17  1  0  0  0
 17 18  1  0  0  0
 18 19  2  0  0  0
 19 20  1  0  0  0
 20 21  2  0  0  0
 21 22  1  0  0  0
 22 23  2  0  0  0
 22 24  1  0  0  0
 24 25  1  0  0  0
 25 27  1  0  0  0
 27 28  1  0  0  0
 27 29  2  0  0  0
 27 30  2  0  0  0
 25 26  1  0  0  0
  9  4  1  0  0  0
 23 18  1  0  0  0
 13  8  1  0  0  0
 26 21  1  0  0  0
M  END
> <minimizedAffinity>
-7.57189

> <CNNscore>
0.1465453655

> <CNNaffinity>
5.5674862862

> <CNN_VS>
0.8158892989

> <CNNaffinity_variance>
0.5239200592

$$$$
[H]c1c([H])c(OC([H])([H])[H])c2c(c1[H])[C@]([H])(C([H])([H])N(C([H])([H])[H])C([H])([H])C([H])([H])c1c([H])c([H])c3c(c1[H])C([H])([H])N(S(=O)(=O)C([H])([H])[H])C3([H])[H])C([H])([H])C([H])([H])C2([H])[H]


 30 33  0  0  0  0  0  0  0  0999 V2000
    1.4545  -50.5310  -18.5770 N   0  0  0  0  0  0  0  0  0  0  0  0
    1.8758  -49.3593  -19.2086 C   0  0  0  0  0  0  0  0  0  0  0  0
    1.2454  -50.6004  -17.2121 C   0  0  0  0  0  0  0  0  0  0  0  0
   -0.9982  -47.2894  -14.3726 C   0  0  0  0  0  0  0  0  0  0  0  0
   -2.1650  -48.0404  -14.4326 C   0  0  0  0  0  0  0  0  0  0  0  0
   -2.1474  -49.2248  -15.1726 C   0  0  0  0  0  0  0  0  0  0  0  0
   -1.0176  -49.6705  -15.8407 C   0  0  0  0  0  0  0  0  0  0  0  0
    0.1441  -48.9207  -15.7801 C   0  0  0  0  0  0  0  0  0  0  0  0
    0.1027  -47.7638  -15.0483 C   0  0  0  0  0  0  0  0  0  0  0  0
    1.4154  -47.0176  -15.0061 C   0  0  0  0  0  0  0  0  0  0  0  0
    2.4616  -48.0439  -14.5924 C   0  0  0  0  0  0  0  0  0  0  0  0
    2.5764  -49.1456  -15.6204 C   0  0  0  0  0  0  0  0  0  0  0  0
    1.3846  -49.2950  -16.4877 C   0  0  0  0  0  0  0  0  0  0  0  0
   -2.0411  -45.4969  -13.0406 C   0  0  0  0  0  0  0  0  0  0  0  0
   -0.9136  -46.0848  -13.6561 O   0  0  0  0  0  0  0  0  0  0  0  0
    1.3756  -51.7212  -19.3399 C   0  0  0  0  0  0  0  0  0  0  0  0
    0.0535  -52.4098  -19.4038 C   0  0  0  0  0  0  0  0  0  0  0  0
   -0.1695  -53.0188  -20.7657 C   0  0  0  0  0  0  0  0  0  0  0  0
   -1.1156  -53.9806  -21.0256 C   0  0  0  0  0  0  0  0  0  0  0  0
   -1.2911  -54.5336  -22.2711 C   0  0  0  0  0  0  0  0  0  0  0  0
   -0.5018  -54.1355  -23.3470 C   0  0  0  0  0  0  0  0  0  0  0  0
    0.4392  -53.1825  -23.0997 C   0  0  0  0  0  0  0  0  0  0  0  0
    0.6163  -52.6191  -21.8283 C   0  0  0  0  0  0  0  0  0  0  0  0
    1.1828  -52.8939  -24.3552 C   0  0  0  0  0  0  0  0  0  0  0  0
    0.4676  -53.6126  -25.3605 N   0  0  0  0  0  0  0  0  0  0  0  0
   -0.4490  -54.5261  -24.7663 C   0  0  0  0  0  0  0  0  0  0  0  0
   -0.4213  -52.5668  -26.4085 S   0  0  0  0  0  0  0  0  0  0  0  0
    0.0410  -52.7946  -28.1021 C   0  0  0  0  0  0  0  0  0  0  0  0
   -1.8791  -52.8647  -26.2059 O   0  0  0  0  0  0  0  0  0  0  0  0
   -0.2238  -51.1342  -25.9665 O   0  0  0  0  0  0  0  0  0  0  0  0
 14 15  1  0  0  0
 15  4  1  0  0  0
  4  5  2  0  0  0
  5  6  1  0  0  0
  6  7  2  0  0  0
  7  8  1  0  0  0
  8  9  2  0  0  0
  9 10  1  0  0  0
 10 11  1  0  0  0
 11 12  1  0  0  0
 12 13  1  0  0  0
 13  3  1  0  0  0
  3  1  1  0  0  0
  1  2  1  0  0  0
  1 16  1  0  0  0
 16 17  1  0  0  0
 17 18  1  0  0  0
 18 19  2  0  0  0
 19 20  1  0  0  0
 20 21  2  0  0  0
 21 22  1  0  0  0
 22 23  2  0  0  0
 22 24  1  0  0  0
 24 25  1  0  0  0
 25 27  1  0  0  0
 27 28  1  0  0  0
 27 29  2  0  0  0
 27 30  2  0  0  0
 25 26  1  0  0  0
  9  4  1  0  0  0
 23 18  1  0  0  0
 13  8  1  0  0  0
 26 21  1  0  0  0
M  END
> <minimizedAffinity>
-7.01789

> <CNNscore>
0.1443700343

> <CNNaffinity>
5.5467424393

> <CNN_VS>
0.8007833958

> <CNNaffinity_variance>
0.1038703173

$$$$
[H]c1c([H])c(OC([H])([H])[H])c2c(c1[H])[C@]([H])(C([H])([H])N(C([H])([H])[H])C([H])([H])C([H])([H])c1c([H])c([H])c3c(c1[H])C([H])([H])N(S(=O)(=O)C([H])([H])[H])C3([H])[H])C([H])([H])C([H])([H])C2([H])[H]


 30 33  0  0  0  0  0  0  0  0999 V2000
    0.8195  -53.1343  -25.0743 N   0  0  0  0  0  0  0  0  0  0  0  0
    0.3852  -54.2661  -25.7671 C   0  0  0  0  0  0  0  0  0  0  0  0
    0.0237  -52.4837  -24.1497 C   0  0  0  0  0  0  0  0  0  0  0  0
    0.8617  -51.2067  -19.4886 C   0  0  0  0  0  0  0  0  0  0  0  0
    1.0187  -49.8855  -19.8871 C   0  0  0  0  0  0  0  0  0  0  0  0
    0.8799  -49.5872  -21.2445 C   0  0  0  0  0  0  0  0  0  0  0  0
    0.5937  -50.5542  -22.1956 C   0  0  0  0  0  0  0  0  0  0  0  0
    0.4381  -51.8702  -21.7966 C   0  0  0  0  0  0  0  0  0  0  0  0
    0.5783  -52.1382  -20.4608 C   0  0  0  0  0  0  0  0  0  0  0  0
    0.3652  -53.5898  -20.1010 C   0  0  0  0  0  0  0  0  0  0  0  0
   -0.9623  -53.9827  -20.7353 C   0  0  0  0  0  0  0  0  0  0  0  0
   -0.8971  -53.8732  -22.2410 C   0  0  0  0  0  0  0  0  0  0  0  0
    0.1689  -52.9735  -22.7400 C   0  0  0  0  0  0  0  0  0  0  0  0
    1.1622  -50.6797  -17.0997 C   0  0  0  0  0  0  0  0  0  0  0  0
    0.9818  -51.6087  -18.1486 O   0  0  0  0  0  0  0  0  0  0  0  0
    2.0597  -52.5540  -25.4343 C   0  0  0  0  0  0  0  0  0  0  0  0
    3.2504  -52.9105  -24.6086 C   0  0  0  0  0  0  0  0  0  0  0  0
    3.6577  -51.7563  -23.7271 C   0  0  0  0  0  0  0  0  0  0  0  0
    4.1205  -51.9041  -22.4420 C   0  0  0  0  0  0  0  0  0  0  0  0
    4.4712  -50.8372  -21.6505 C   0  0  0  0  0  0  0  0  0  0  0  0
    4.3710  -49.5320  -22.1257 C   0  0  0  0  0  0  0  0  0  0  0  0
    3.9132  -49.3747  -23.3987 C   0  0  0  0  0  0  0  0  0  0  0  0
    3.5564  -50.4648  -24.2048 C   0  0  0  0  0  0  0  0  0  0  0  0
    3.8678  -47.9242  -23.7248 C   0  0  0  0  0  0  0  0  0  0  0  0
    4.5091  -47.2942  -22.6156 N   0  0  0  0  0  0  0  0  0  0  0  0
    4.6643  -48.2131  -21.5390 C   0  0  0  0  0  0  0  0  0  0  0  0
    6.0699  -46.6774  -23.0230 S   0  0  0  0  0  0  0  0  0  0  0  0
    6.4794  -47.0052  -24.7138 C   0  0  0  0  0  0  0  0  0  0  0  0
    6.0514  -45.2004  -22.7524 O   0  0  0  0  0  0  0  0  0  0  0  0
    7.0973  -47.2608  -22.0792 O   0  0  0  0  0  0  0  0  0  0  0  0
 14 15  1  0  0  0
 15  4  1  0  0  0
  4  5  2  0  0  0
  5  6  1  0  0  0
  6  7  2  0  0  0
  7  8  1  0  0  0
  8  9  2  0  0  0
  9 10  1  0  0  0
 10 11  1  0  0  0
 11 12  1  0  0  0
 12 13  1  0  0  0
 13  3  1  0  0  0
  3  1  1  0  0  0
  1  2  1  0  0  0
  1 16  1  0  0  0
 16 17  1  0  0  0
 17 18  1  0  0  0
 18 19  2  0  0  0
 19 20  1  0  0  0
 20 21  2  0  0  0
 21 22  1  0  0  0
 22 23  2  0  0  0
 22 24  1  0  0  0
 24 25  1  0  0  0
 25 27  1  0  0  0
 27 28  1  0  0  0
 27 29  2  0  0  0
 27 30  2  0  0  0
 25 26  1  0  0  0
  9  4  1  0  0  0
 23 18  1  0  0  0
 13  8  1  0  0  0
 26 21  1  0  0  0
M  END
> <minimizedAffinity>
-6.49865

> <CNNscore>
0.1377697289

> <CNNaffinity>
5.9602332115

> <CNN_VS>
0.8211396933

> <CNNaffinity_variance>
0.2635958791

$$$$
[H]N=C(c1c([H])c([H])c(C([H])([H])N([H])C(=O)C2([H])N3C(=O)[C@](O[H])(C([H])([H])c4c([H])c([H])c([H])c([H])c4[H])C([H])([H])C([H])([H])[C@]3([H])C([H])([H])C2([H])[H])c([H])c1[H])N([H])[H]


 36 39  0  0  0  0  0  0  0  0999 V2000
    0.8068  -50.4299  -21.6503 C   0  0  0  0  0  0  0  0  0  0  0  0
    1.7261  -49.2298  -21.5676 C   0  0  0  0  0  0  0  0  0  0  0  0
    3.0413  -49.8417  -22.0252 C   0  0  0  0  0  0  0  0  0  0  0  0
    2.5895  -50.6392  -23.2271 C   0  0  0  0  0  0  0  0  0  0  0  0
    3.5040  -51.8005  -23.5131 C   0  0  0  0  0  0  0  0  0  0  0  0
    2.9433  -52.7066  -24.5593 C   0  0  0  0  0  0  0  0  0  0  0  0
    1.5041  -52.4436  -24.9041 C   0  0  0  0  0  0  0  0  0  0  0  0
    1.3834  -51.3489  -25.7768 O   0  0  0  0  0  0  0  0  0  0  0  0
    0.7584  -52.2000  -23.6414 C   0  0  0  0  0  0  0  0  0  0  0  0
   -0.2468  -52.8339  -23.2706 O   0  0  0  0  0  0  0  0  0  0  0  0
    1.2702  -51.1437  -22.8159 N   0  0  0  0  0  0  0  0  0  0  0  0
    2.1958  -51.3988  -26.3633 H   0  0  0  0  0  0  0  0  0  0  0  0
    0.7996  -50.5609  -19.1634 N   0  0  0  0  0  0  0  0  0  0  0  0
    1.0484  -51.2238  -20.3927 C   0  0  0  0  0  0  0  0  0  0  0  0
    1.4444  -52.3965  -20.4160 O   0  0  0  0  0  0  0  0  0  0  0  0
    0.4617  -49.5567  -19.1276 H   0  0  0  0  0  0  0  0  0  0  0  0
    0.9825  -51.1888  -17.8663 C   0  0  0  0  0  0  0  0  0  0  0  0
   -2.8356  -52.1486  -16.2170 C   0  0  0  0  0  0  0  0  0  0  0  0
   -2.2716  -52.9055  -17.2056 C   0  0  0  0  0  0  0  0  0  0  0  0
   -1.0304  -52.6297  -17.7688 C   0  0  0  0  0  0  0  0  0  0  0  0
   -0.3385  -51.5447  -17.3097 C   0  0  0  0  0  0  0  0  0  0  0  0
   -0.8797  -50.7669  -16.3181 C   0  0  0  0  0  0  0  0  0  0  0  0
   -2.1189  -51.0435  -15.7568 C   0  0  0  0  0  0  0  0  0  0  0  0
   -4.7673  -53.5589  -15.7755 N   0  0  0  0  0  0  0  0  0  0  0  0
   -4.1369  -52.4537  -15.6406 C   0  0  0  0  0  0  0  0  0  0  0  0
   -4.8063  -51.4592  -14.8452 N   0  0  0  0  0  0  0  0  0  0  0  0
   -4.3507  -54.3203  -16.3322 H   0  0  0  0  0  0  0  0  0  0  0  0
   -4.3933  -51.1292  -13.9475 H   0  0  0  0  0  0  0  0  0  0  0  0
   -5.7140  -51.0756  -15.1863 H   0  0  0  0  0  0  0  0  0  0  0  0
    0.9461  -53.6355  -25.6456 C   0  0  0  0  0  0  0  0  0  0  0  0
    0.2072  -53.2753  -26.8536 C   0  0  0  0  0  0  0  0  0  0  0  0
   -1.0967  -52.8206  -26.8406 C   0  0  0  0  0  0  0  0  0  0  0  0
   -1.7658  -52.4913  -28.0087 C   0  0  0  0  0  0  0  0  0  0  0  0
   -1.1352  -52.6126  -29.2273 C   0  0  0  0  0  0  0  0  0  0  0  0
    0.1527  -53.0600  -29.2619 C   0  0  0  0  0  0  0  0  0  0  0  0
    0.8187  -53.3889  -28.0839 C   0  0  0  0  0  0  0  0  0  0  0  0
 24 25  2  0  0  0
 25 26  1  0  0  0
 25 18  1  0  0  0
 18 19  2  0  0  0
 19 20  1  0  0  0
 20 21  2  0  0  0
 21 17  1  0  0  0
 17 13  1  0  0  0
 13 14  1  0  0  0
 14 15  2  0  0  0
 14  1  1  0  0  0
  1  2  1  0  0  0
  2  3  1  0  0  0
  3  4  1  0  0  0
  4  5  1  0  0  0
  5  6  1  0  0  0
  6  7  1  0  0  0
  7  8  1  0  0  0
  7 30  1  0  0  0
 30 31  1  0  0  0
 31 32  2  0  0  0
 32 33  1  0  0  0
 33 34  2  0  0  0
 34 35  1  0  0  0
 35 36  2  0  0  0
  7  9  1  0  0  0
  9 10  2  0  0  0
  9 11  1  0  0  0
 21 22  1  0  0  0
 22 23  2  0  0  0
 23 18  1  0  0  0
 11  1  1  0  0  0
 11  4  1  0  0  0
 36 31  1  0  0  0
 24 27  1  0  0  0
 26 28  1  0  0  0
 26 29  1  0  0  0
 13 16  1  0  0  0
  8 12  1  0  0  0
M  END
> <minimizedAffinity>
-8.94966

> <CNNscore>
0.3320832551

> <CNNaffinity>
6.2167310715

> <CNN_VS>
2.0644721985

> <CNNaffinity_variance>
0.1196949854

$$$$
[H]N=C(c1c([H])c([H])c(C([H])([H])N([H])C(=O)C2([H])N3C(=O)[C@](O[H])(C([H])([H])c4c([H])c([H])c([H])c([H])c4[H])C([H])([H])C([H])([H])[C@]3([H])C([H])([H])C2([H])[H])c([H])c1[H])N([H])[H]


 36 39  0  0  0  0  0  0  0  0999 V2000
    1.4946  -52.3201  -27.5315 C   0  0  0  0  0  0  0  0  0  0  0  0
    1.0100  -53.2874  -28.5906 C   0  0  0  0  0  0  0  0  0  0  0  0
    0.6068  -54.4767  -27.7324 C   0  0  0  0  0  0  0  0  0  0  0  0
   -0.1545  -53.7901  -26.6216 C   0  0  0  0  0  0  0  0  0  0  0  0
   -0.1455  -54.5928  -25.3479 C   0  0  0  0  0  0  0  0  0  0  0  0
   -0.7082  -53.8219  -24.1995 C   0  0  0  0  0  0  0  0  0  0  0  0
   -0.9044  -52.3565  -24.4701 C   0  0  0  0  0  0  0  0  0  0  0  0
   -2.0787  -52.1295  -25.2077 O   0  0  0  0  0  0  0  0  0  0  0  0
    0.2874  -51.8532  -25.2024 C   0  0  0  0  0  0  0  0  0  0  0  0
    1.0039  -50.9034  -24.8358 O   0  0  0  0  0  0  0  0  0  0  0  0
    0.6007  -52.5436  -26.4208 N   0  0  0  0  0  0  0  0  0  0  0  0
   -2.7243  -52.8243  -24.8806 H   0  0  0  0  0  0  0  0  0  0  0  0
    3.4015  -52.3427  -25.9300 N   0  0  0  0  0  0  0  0  0  0  0  0
    2.9003  -52.7453  -27.1945 C   0  0  0  0  0  0  0  0  0  0  0  0
    3.5945  -53.4125  -27.9727 O   0  0  0  0  0  0  0  0  0  0  0  0
    2.8194  -51.7702  -25.2538 H   0  0  0  0  0  0  0  0  0  0  0  0
    4.7345  -52.6739  -25.4571 C   0  0  0  0  0  0  0  0  0  0  0  0
    5.4386  -50.5750  -21.8077 C   0  0  0  0  0  0  0  0  0  0  0  0
    6.3774  -50.6213  -22.8000 C   0  0  0  0  0  0  0  0  0  0  0  0
    6.1883  -51.2911  -24.0039 C   0  0  0  0  0  0  0  0  0  0  0  0
    5.0014  -51.9372  -24.2051 C   0  0  0  0  0  0  0  0  0  0  0  0
    4.0405  -51.9078  -23.2268 C   0  0  0  0  0  0  0  0  0  0  0  0
    4.2307  -51.2386  -22.0255 C   0  0  0  0  0  0  0  0  0  0  0  0
    6.7201  -49.2338  -20.2347 N   0  0  0  0  0  0  0  0  0  0  0  0
    5.6560  -49.8685  -20.5538 C   0  0  0  0  0  0  0  0  0  0  0  0
    4.6141  -49.8563  -19.5617 N   0  0  0  0  0  0  0  0  0  0  0  0
    7.5113  -49.1980  -20.8951 H   0  0  0  0  0  0  0  0  0  0  0  0
    3.6987  -49.3989  -19.7570 H   0  0  0  0  0  0  0  0  0  0  0  0
    4.7947  -50.3150  -18.6428 H   0  0  0  0  0  0  0  0  0  0  0  0
   -1.0853  -51.6298  -23.1583 C   0  0  0  0  0  0  0  0  0  0  0  0
   -0.5481  -52.3580  -22.0110 C   0  0  0  0  0  0  0  0  0  0  0  0
    0.7377  -52.1883  -21.5366 C   0  0  0  0  0  0  0  0  0  0  0  0
    1.2125  -52.9001  -20.4464 C   0  0  0  0  0  0  0  0  0  0  0  0
    0.3997  -53.8067  -19.8023 C   0  0  0  0  0  0  0  0  0  0  0  0
   -0.8737  -53.9891  -20.2553 C   0  0  0  0  0  0  0  0  0  0  0  0
   -1.3439  -53.2701  -21.3515 C   0  0  0  0  0  0  0  0  0  0  0  0
 24 25  2  0  0  0
 25 26  1  0  0  0
 25 18  1  0  0  0
 18 19  2  0  0  0
 19 20  1  0  0  0
 20 21  2  0  0  0
 21 17  1  0  0  0
 17 13  1  0  0  0
 13 14  1  0  0  0
 14 15  2  0  0  0
 14  1  1  0  0  0
  1  2  1  0  0  0
  2  3  1  0  0  0
  3  4  1  0  0  0
  4  5  1  0  0  0
  5  6  1  0  0  0
  6  7  1  0  0  0
  7  8  1  0  0  0
  7 30  1  0  0  0
 30 31  1  0  0  0
 31 32  2  0  0  0
 32 33  1  0  0  0
 33 34  2  0  0  0
 34 35  1  0  0  0
 35 36  2  0  0  0
  7  9  1  0  0  0
  9 10  2  0  0  0
  9 11  1  0  0  0
 21 22  1  0  0  0
 22 23  2  0  0  0
 23 18  1  0  0  0
 11  1  1  0  0  0
 11  4  1  0  0  0
 36 31  1  0  0  0
 24 27  1  0  0  0
 26 28  1  0  0  0
 26 29  1  0  0  0
 13 16  1  0  0  0
  8 12  1  0  0  0
M  END
> <minimizedAffinity>
-6.41089

> <CNNscore>
0.3319313228

> <CNNaffinity>
6.3449206352

> <CNN_VS>
2.1060779095

> <CNNaffinity_variance>
0.0871001035

$$$$
[H]N=C(c1c([H])c([H])c(C([H])([H])N([H])C(=O)C2([H])N3C(=O)[C@](O[H])(C([H])([H])c4c([H])c([H])c([H])c([H])c4[H])C([H])([H])C([H])([H])[C@]3([H])C([H])([H])C2([H])[H])c([H])c1[H])N([H])[H]


 36 39  0  0  0  0  0  0  0  0999 V2000
    0.5525  -53.9614  -23.6978 C   0  0  0  0  0  0  0  0  0  0  0  0
   -0.4235  -54.5071  -24.7184 C   0  0  0  0  0  0  0  0  0  0  0  0
   -0.7555  -53.2468  -25.5027 C   0  0  0  0  0  0  0  0  0  0  0  0
    0.6207  -52.6518  -25.6949 C   0  0  0  0  0  0  0  0  0  0  0  0
    0.5717  -51.1586  -25.8812 C   0  0  0  0  0  0  0  0  0  0  0  0
    1.9346  -50.5490  -25.8553 C   0  0  0  0  0  0  0  0  0  0  0  0
    3.0216  -51.4745  -25.3852 C   0  0  0  0  0  0  0  0  0  0  0  0
    3.4234  -52.3474  -26.4104 O   0  0  0  0  0  0  0  0  0  0  0  0
    2.5141  -52.2327  -24.2116 C   0  0  0  0  0  0  0  0  0  0  0  0
    3.0594  -52.2688  -23.0930 O   0  0  0  0  0  0  0  0  0  0  0  0
    1.2997  -52.9658  -24.4281 N   0  0  0  0  0  0  0  0  0  0  0  0
    3.3464  -51.8062  -27.2517 H   0  0  0  0  0  0  0  0  0  0  0  0
    0.1282  -52.0565  -22.1508 N   0  0  0  0  0  0  0  0  0  0  0  0
   -0.2875  -53.3297  -22.6181 C   0  0  0  0  0  0  0  0  0  0  0  0
   -1.2925  -53.8829  -22.1527 O   0  0  0  0  0  0  0  0  0  0  0  0
    0.9872  -51.5712  -22.5387 H   0  0  0  0  0  0  0  0  0  0  0  0
   -0.5745  -51.3168  -21.1168 C   0  0  0  0  0  0  0  0  0  0  0  0
    2.2125  -48.8833  -18.9885 C   0  0  0  0  0  0  0  0  0  0  0  0
    1.7442  -48.5249  -20.2216 C   0  0  0  0  0  0  0  0  0  0  0  0
    0.8351  -49.2866  -20.9477 C   0  0  0  0  0  0  0  0  0  0  0  0
    0.3867  -50.4549  -20.3994 C   0  0  0  0  0  0  0  0  0  0  0  0
    0.8393  -50.8400  -19.1632 C   0  0  0  0  0  0  0  0  0  0  0  0
    1.7468  -50.0785  -18.4395 C   0  0  0  0  0  0  0  0  0  0  0  0
    4.0928  -48.5241  -17.4883 N   0  0  0  0  0  0  0  0  0  0  0  0
    3.1648  -48.0721  -18.2443 C   0  0  0  0  0  0  0  0  0  0  0  0
    3.0940  -46.6382  -18.3377 N   0  0  0  0  0  0  0  0  0  0  0  0
    4.2064  -49.5422  -17.3712 H   0  0  0  0  0  0  0  0  0  0  0  0
    3.2643  -46.1549  -19.2447 H   0  0  0  0  0  0  0  0  0  0  0  0
    2.8685  -46.0928  -17.4780 H   0  0  0  0  0  0  0  0  0  0  0  0
    4.2424  -50.6619  -25.0230 C   0  0  0  0  0  0  0  0  0  0  0  0
    3.9544  -49.2468  -24.8005 C   0  0  0  0  0  0  0  0  0  0  0  0
    3.5023  -48.7426  -23.5969 C   0  0  0  0  0  0  0  0  0  0  0  0
    3.2371  -47.3932  -23.4253 C   0  0  0  0  0  0  0  0  0  0  0  0
    3.4213  -46.5117  -24.4677 C   0  0  0  0  0  0  0  0  0  0  0  0
    3.8672  -46.9897  -25.6647 C   0  0  0  0  0  0  0  0  0  0  0  0
    4.1316  -48.3470  -25.8297 C   0  0  0  0  0  0  0  0  0  0  0  0
 24 25  2  0  0  0
 25 26  1  0  0  0
 25 18  1  0  0  0
 18 19  2  0  0  0
 19 20  1  0  0  0
 20 21  2  0  0  0
 21 17  1  0  0  0
 17 13  1  0  0  0
 13 14  1  0  0  0
 14 15  2  0  0  0
 14  1  1  0  0  0
  1  2  1  0  0  0
  2  3  1  0  0  0
  3  4  1  0  0  0
  4  5  1  0  0  0
  5  6  1  0  0  0
  6  7  1  0  0  0
  7  8  1  0  0  0
  7 30  1  0  0  0
 30 31  1  0  0  0
 31 32  2  0  0  0
 32 33  1  0  0  0
 33 34  2  0  0  0
 34 35  1  0  0  0
 35 36  2  0  0  0
  7  9  1  0  0  0
  9 10  2  0  0  0
  9 11  1  0  0  0
 21 22  1  0  0  0
 22 23  2  0  0  0
 23 18  1  0  0  0
 11  1  1  0  0  0
 11  4  1  0  0  0
 36 31  1  0  0  0
 24 27  1  0  0  0
 26 28  1  0  0  0
 26 29  1  0  0  0
 13 16  1  0  0  0
  8 12  1  0  0  0
M  END
> <minimizedAffinity>
-6.79856

> <CNNscore>
0.2447021306

> <CNNaffinity>
6.0152082443

> <CNN_VS>
1.4719343185

> <CNNaffinity_variance>
0.3405488133

$$$$
[H]N=C(c1c([H])c([H])c(C([H])([H])N([H])C(=O)C2([H])N3C(=O)[C@](O[H])(C([H])([H])c4c([H])c([H])c([H])c([H])c4[H])C([H])([H])C([H])([H])[C@]3([H])C([H])([H])C2([H])[H])c([H])c1[H])N([H])[H]


 36 39  0  0  0  0  0  0  0  0999 V2000
    0.3636  -50.4993  -21.5122 C   0  0  0  0  0  0  0  0  0  0  0  0
    1.2353  -49.2759  -21.3239 C   0  0  0  0  0  0  0  0  0  0  0  0
    2.6045  -49.8411  -21.6697 C   0  0  0  0  0  0  0  0  0  0  0  0
    2.2883  -50.6258  -22.9223 C   0  0  0  0  0  0  0  0  0  0  0  0
    3.2592  -51.7549  -23.1440 C   0  0  0  0  0  0  0  0  0  0  0  0
    2.8236  -52.6545  -24.2534 C   0  0  0  0  0  0  0  0  0  0  0  0
    1.4148  -52.4249  -24.7241 C   0  0  0  0  0  0  0  0  0  0  0  0
    1.3415  -51.3162  -25.5843 O   0  0  0  0  0  0  0  0  0  0  0  0
    0.5500  -52.2285  -23.5311 C   0  0  0  0  0  0  0  0  0  0  0  0
   -0.4655  -52.8979  -23.2656 O   0  0  0  0  0  0  0  0  0  0  0  0
    0.9525  -51.1756  -22.6431 N   0  0  0  0  0  0  0  0  0  0  0  0
    2.2053  -51.3310  -26.0945 H   0  0  0  0  0  0  0  0  0  0  0  0
    0.2226  -50.6521  -19.0306 N   0  0  0  0  0  0  0  0  0  0  0  0
    0.5130  -51.3120  -20.2523 C   0  0  0  0  0  0  0  0  0  0  0  0
    0.8706  -52.4971  -20.2676 O   0  0  0  0  0  0  0  0  0  0  0  0
   -0.0834  -49.6375  -19.0017 H   0  0  0  0  0  0  0  0  0  0  0  0
    0.3168  -51.2972  -17.7325 C   0  0  0  0  0  0  0  0  0  0  0  0
    2.2125  -48.6471  -14.9753 C   0  0  0  0  0  0  0  0  0  0  0  0
    2.9300  -49.5474  -15.7121 C   0  0  0  0  0  0  0  0  0  0  0  0
    2.3530  -50.4266  -16.6221 C   0  0  0  0  0  0  0  0  0  0  0  0
    0.9974  -50.3884  -16.7880 C   0  0  0  0  0  0  0  0  0  0  0  0
    0.2516  -49.4951  -16.0620 C   0  0  0  0  0  0  0  0  0  0  0  0
    0.8290  -48.6179  -15.1540 C   0  0  0  0  0  0  0  0  0  0  0  0
    3.0667  -46.4940  -14.2340 N   0  0  0  0  0  0  0  0  0  0  0  0
    2.8353  -47.7352  -14.0270 C   0  0  0  0  0  0  0  0  0  0  0  0
    3.2398  -48.2274  -12.7371 N   0  0  0  0  0  0  0  0  0  0  0  0
    2.8046  -46.0686  -15.1360 H   0  0  0  0  0  0  0  0  0  0  0  0
    2.5344  -48.5838  -12.0584 H   0  0  0  0  0  0  0  0  0  0  0  0
    4.2542  -48.2199  -12.4959 H   0  0  0  0  0  0  0  0  0  0  0  0
    0.9626  -53.6163  -25.5352 C   0  0  0  0  0  0  0  0  0  0  0  0
    0.2429  -53.2515  -26.7533 C   0  0  0  0  0  0  0  0  0  0  0  0
   -1.0663  -52.8119  -26.7607 C   0  0  0  0  0  0  0  0  0  0  0  0
   -1.7166  -52.4776  -27.9379 C   0  0  0  0  0  0  0  0  0  0  0  0
   -1.0613  -52.5784  -29.1454 C   0  0  0  0  0  0  0  0  0  0  0  0
    0.2321  -53.0107  -29.1598 C   0  0  0  0  0  0  0  0  0  0  0  0
    0.8792  -53.3447  -27.9726 C   0  0  0  0  0  0  0  0  0  0  0  0
 24 25  2  0  0  0
 25 26  1  0  0  0
 25 18  1  0  0  0
 18 19  2  0  0  0
 19 20  1  0  0  0
 20 21  2  0  0  0
 21 17  1  0  0  0
 17 13  1  0  0  0
 13 14  1  0  0  0
 14 15  2  0  0  0
 14  1  1  0  0  0
  1  2  1  0  0  0
  2  3  1  0  0  0
  3  4  1  0  0  0
  4  5  1  0  0  0
  5  6  1  0  0  0
  6  7  1  0  0  0
  7  8  1  0  0  0
  7 30  1  0  0  0
 30 31  1  0  0  0
 31 32  2  0  0  0
 32 33  1  0  0  0
 33 34  2  0  0  0
 34 35  1  0  0  0
 35 36  2  0  0  0
  7  9  1  0  0  0
  9 10  2  0  0  0
  9 11  1  0  0  0
 21 22  1  0  0  0
 22 23  2  0  0  0
 23 18  1  0  0  0
 11  1  1  0  0  0
 11  4  1  0  0  0
 36 31  1  0  0  0
 24 27  1  0  0  0
 26 28  1  0  0  0
 26 29  1  0  0  0
 13 16  1  0  0  0
  8 12  1  0  0  0
M  END
> <minimizedAffinity>
-7.48640

> <CNNscore>
0.2325649261

> <CNNaffinity>
5.8070120811

> <CNN_VS>
1.3505073786

> <CNNaffinity_variance>
0.2165712863

$$$$
[H]N=C(c1c([H])c([H])c(C([H])([H])N([H])C(=O)C2([H])N3C(=O)[C@](O[H])(C([H])([H])c4c([H])c([H])c([H])c([H])c4[H])C([H])([H])C([H])([H])[C@]3([H])C([H])([H])C2([H])[H])c([H])c1[H])N([H])[H]


 36 39  0  0  0  0  0  0  0  0999 V2000
    0.6919  -54.3709  -25.1216 C   0  0  0  0  0  0  0  0  0  0  0  0
   -0.0180  -54.5894  -26.4409 C   0  0  0  0  0  0  0  0  0  0  0  0
   -0.3804  -53.1599  -26.8137 C   0  0  0  0  0  0  0  0  0  0  0  0
    0.9161  -52.4427  -26.5146 C   0  0  0  0  0  0  0  0  0  0  0  0
    0.6990  -50.9861  -26.2018 C   0  0  0  0  0  0  0  0  0  0  0  0
    1.9442  -50.3327  -25.6995 C   0  0  0  0  0  0  0  0  0  0  0  0
    3.0517  -51.2876  -25.3522 C   0  0  0  0  0  0  0  0  0  0  0  0
    3.7323  -51.7160  -26.5045 O   0  0  0  0  0  0  0  0  0  0  0  0
    2.4619  -52.4420  -24.6247 C   0  0  0  0  0  0  0  0  0  0  0  0
    2.8127  -52.8307  -23.4952 O   0  0  0  0  0  0  0  0  0  0  0  0
    1.4100  -53.1338  -25.3134 N   0  0  0  0  0  0  0  0  0  0  0  0
    3.7249  -50.9208  -27.1162 H   0  0  0  0  0  0  0  0  0  0  0  0
    0.0121  -53.7909  -22.7971 N   0  0  0  0  0  0  0  0  0  0  0  0
   -0.3935  -54.2169  -24.0880 C   0  0  0  0  0  0  0  0  0  0  0  0
   -1.5838  -54.4474  -24.3386 O   0  0  0  0  0  0  0  0  0  0  0  0
    1.0276  -53.5911  -22.5673 H   0  0  0  0  0  0  0  0  0  0  0  0
   -0.9123  -53.5936  -21.6941 C   0  0  0  0  0  0  0  0  0  0  0  0
    0.5764  -50.4541  -19.2150 C   0  0  0  0  0  0  0  0  0  0  0  0
    0.1971  -51.6595  -18.6940 C   0  0  0  0  0  0  0  0  0  0  0  0
   -0.2908  -52.7088  -19.4652 C   0  0  0  0  0  0  0  0  0  0  0  0
   -0.3966  -52.5248  -20.8149 C   0  0  0  0  0  0  0  0  0  0  0  0
   -0.0232  -51.3255  -21.3658 C   0  0  0  0  0  0  0  0  0  0  0  0
    0.4637  -50.2789  -20.5946 C   0  0  0  0  0  0  0  0  0  0  0  0
    0.7261  -49.1192  -17.1875 N   0  0  0  0  0  0  0  0  0  0  0  0
    1.0844  -49.3675  -18.3904 C   0  0  0  0  0  0  0  0  0  0  0  0
    2.0733  -48.4741  -18.9324 N   0  0  0  0  0  0  0  0  0  0  0  0
    0.0206  -49.7165  -16.7306 H   0  0  0  0  0  0  0  0  0  0  0  0
    3.0175  -48.8242  -19.1991 H   0  0  0  0  0  0  0  0  0  0  0  0
    1.8249  -47.4685  -19.0525 H   0  0  0  0  0  0  0  0  0  0  0  0
    4.0748  -50.5723  -24.5017 C   0  0  0  0  0  0  0  0  0  0  0  0
    3.6498  -49.2401  -24.0777 C   0  0  0  0  0  0  0  0  0  0  0  0
    3.9005  -48.0939  -24.8062 C   0  0  0  0  0  0  0  0  0  0  0  0
    3.4836  -46.8466  -24.3694 C   0  0  0  0  0  0  0  0  0  0  0  0
    2.7996  -46.7207  -23.1803 C   0  0  0  0  0  0  0  0  0  0  0  0
    2.5420  -47.8405  -22.4458 C   0  0  0  0  0  0  0  0  0  0  0  0
    2.9641  -49.0908  -22.8912 C   0  0  0  0  0  0  0  0  0  0  0  0
 24 25  2  0  0  0
 25 26  1  0  0  0
 25 18  1  0  0  0
 18 19  2  0  0  0
 19 20  1  0  0  0
 20 21  2  0  0  0
 21 17  1  0  0  0
 17 13  1  0  0  0
 13 14  1  0  0  0
 14 15  2  0  0  0
 14  1  1  0  0  0
  1  2  1  0  0  0
  2  3  1  0  0  0
  3  4  1  0  0  0
  4  5  1  0  0  0
  5  6  1  0  0  0
  6  7  1  0  0  0
  7  8  1  0  0  0
  7 30  1  0  0  0
 30 31  1  0  0  0
 31 32  2  0  0  0
 32 33  1  0  0  0
 33 34  2  0  0  0
 34 35  1  0  0  0
 35 36  2  0  0  0
  7  9  1  0  0  0
  9 10  2  0  0  0
  9 11  1  0  0  0
 21 22  1  0  0  0
 22 23  2  0  0  0
 23 18  1  0  0  0
 11  1  1  0  0  0
 11  4  1  0  0  0
 36 31  1  0  0  0
 24 27  1  0  0  0
 26 28  1  0  0  0
 26 29  1  0  0  0
 13 16  1  0  0  0
  8 12  1  0  0  0
M  END
> <minimizedAffinity>
-7.62288

> <CNNscore>
0.2053602785

> <CNNaffinity>
6.1200890541

> <CNN_VS>
1.2568231821

> <CNNaffinity_variance>
0.1706791520

$$$$
[H]N=C(c1c([H])c([H])c(C([H])([H])N([H])C(=O)C2([H])N3C(=O)[C@](O[H])(C([H])([H])c4c([H])c([H])c([H])c([H])c4[H])C([H])([H])C([H])([H])[C@]3([H])C([H])([H])C2([H])[H])c([H])c1[H])N([H])[H]


 36 39  0  0  0  0  0  0  0  0999 V2000
    1.8769  -48.9418  -18.3260 C   0  0  0  0  0  0  0  0  0  0  0  0
    2.9742  -49.0758  -17.2915 C   0  0  0  0  0  0  0  0  0  0  0  0
    3.7802  -50.2271  -17.8735 C   0  0  0  0  0  0  0  0  0  0  0  0
    3.8594  -49.8221  -19.3276 C   0  0  0  0  0  0  0  0  0  0  0  0
    4.0460  -51.0076  -20.2368 C   0  0  0  0  0  0  0  0  0  0  0  0
    3.9089  -50.6330  -21.6757 C   0  0  0  0  0  0  0  0  0  0  0  0
    3.3543  -49.2559  -21.9104 C   0  0  0  0  0  0  0  0  0  0  0  0
    4.3455  -48.2742  -21.7415 O   0  0  0  0  0  0  0  0  0  0  0  0
    2.2270  -49.0393  -20.9658 C   0  0  0  0  0  0  0  0  0  0  0  0
    1.0682  -48.7255  -21.2949 O   0  0  0  0  0  0  0  0  0  0  0  0
    2.5425  -49.2155  -19.5770 N   0  0  0  0  0  0  0  0  0  0  0  0
    5.1891  -48.7029  -22.0747 H   0  0  0  0  0  0  0  0  0  0  0  0
    0.6999  -51.0431  -18.9591 N   0  0  0  0  0  0  0  0  0  0  0  0
    0.8674  -50.0117  -17.9998 C   0  0  0  0  0  0  0  0  0  0  0  0
    0.2097  -50.0034  -16.9509 O   0  0  0  0  0  0  0  0  0  0  0  0
    1.2548  -51.0628  -19.8622 H   0  0  0  0  0  0  0  0  0  0  0  0
   -0.2309  -52.1457  -18.7920 C   0  0  0  0  0  0  0  0  0  0  0  0
   -0.7679  -54.0199  -22.5892 C   0  0  0  0  0  0  0  0  0  0  0  0
   -1.5948  -54.2885  -21.5344 C   0  0  0  0  0  0  0  0  0  0  0  0
   -1.4567  -53.6993  -20.2824 C   0  0  0  0  0  0  0  0  0  0  0  0
   -0.4407  -52.8049  -20.0970 C   0  0  0  0  0  0  0  0  0  0  0  0
    0.4047  -52.5156  -21.1376 C   0  0  0  0  0  0  0  0  0  0  0  0
    0.2656  -53.1046  -22.3870 C   0  0  0  0  0  0  0  0  0  0  0  0
   -1.2947  -55.8573  -24.0930 N   0  0  0  0  0  0  0  0  0  0  0  0
   -0.9288  -54.6478  -23.8924 C   0  0  0  0  0  0  0  0  0  0  0  0
   -0.6658  -53.8816  -25.0814 N   0  0  0  0  0  0  0  0  0  0  0  0
   -1.5012  -56.4689  -23.2889 H   0  0  0  0  0  0  0  0  0  0  0  0
   -1.2467  -53.0499  -25.3179 H   0  0  0  0  0  0  0  0  0  0  0  0
    0.1188  -54.1767  -25.7017 H   0  0  0  0  0  0  0  0  0  0  0  0
    2.8930  -49.1447  -23.3444 C   0  0  0  0  0  0  0  0  0  0  0  0
    3.5391  -48.0608  -24.0811 C   0  0  0  0  0  0  0  0  0  0  0  0
    3.1447  -46.7402  -23.9928 C   0  0  0  0  0  0  0  0  0  0  0  0
    3.7811  -45.7397  -24.7101 C   0  0  0  0  0  0  0  0  0  0  0  0
    4.8374  -46.0453  -25.5398 C   0  0  0  0  0  0  0  0  0  0  0  0
    5.2424  -47.3436  -25.6411 C   0  0  0  0  0  0  0  0  0  0  0  0
    4.5980  -48.3438  -24.9171 C   0  0  0  0  0  0  0  0  0  0  0  0
 24 25  2  0  0  0
 25 26  1  0  0  0
 25 18  1  0  0  0
 18 19  2  0  0  0
 19 20  1  0  0  0
 20 21  2  0  0  0
 21 17  1  0  0  0
 17 13  1  0  0  0
 13 14  1  0  0  0
 14 15  2  0  0  0
 14  1  1  0  0  0
  1  2  1  0  0  0
  2  3  1  0  0  0
  3  4  1  0  0  0
  4  5  1  0  0  0
  5  6  1  0  0  0
  6  7  1  0  0  0
  7  8  1  0  0  0
  7 30  1  0  0  0
 30 31  1  0  0  0
 31 32  2  0  0  0
 32 33  1  0  0  0
 33 34  2  0  0  0
 34 35  1  0  0  0
 35 36  2  0  0  0
  7  9  1  0  0  0
  9 10  2  0  0  0
  9 11  1  0  0  0
 21 22  1  0  0  0
 22 23  2  0  0  0
 23 18  1  0  0  0
 11  1  1  0  0  0
 11  4  1  0  0  0
 36 31  1  0  0  0
 24 27  1  0  0  0
 26 28  1  0  0  0
 26 29  1  0  0  0
 13 16  1  0  0  0
  8 12  1  0  0  0
M  END
> <minimizedAffinity>
-7.46650

> <CNNscore>
0.1985213459

> <CNNaffinity>
5.6639928818

> <CNN_VS>
1.1244235039

> <CNNaffinity_variance>
0.1221852899

$$$$
[H]N=C(c1c([H])c([H])c(C([H])([H])N([H])C(=O)C2([H])N3C(=O)[C@](O[H])(C([H])([H])c4c([H])c([H])c([H])c([H])c4[H])C([H])([H])C([H])([H])[C@]3([H])C([H])([H])C2([H])[H])c([H])c1[H])N([H])[H]


 36 39  0  0  0  0  0  0  0  0999 V2000
    4.2886  -48.6403  -23.4784 C   0  0  0  0  0  0  0  0  0  0  0  0
    4.1118  -47.1366  -23.4697 C   0  0  0  0  0  0  0  0  0  0  0  0
    2.7026  -47.0151  -22.9103 C   0  0  0  0  0  0  0  0  0  0  0  0
    2.7599  -47.9937  -21.7598 C   0  0  0  0  0  0  0  0  0  0  0  0
    1.4006  -48.5392  -21.4113 C   0  0  0  0  0  0  0  0  0  0  0  0
    1.4852  -49.6584  -20.4265 C   0  0  0  0  0  0  0  0  0  0  0  0
    2.8747  -50.1852  -20.2008 C   0  0  0  0  0  0  0  0  0  0  0  0
    3.5973  -49.3534  -19.3289 O   0  0  0  0  0  0  0  0  0  0  0  0
    3.5542  -50.2898  -21.5188 C   0  0  0  0  0  0  0  0  0  0  0  0
    4.0649  -51.3273  -21.9801 O   0  0  0  0  0  0  0  0  0  0  0  0
    3.6032  -49.0783  -22.2863 N   0  0  0  0  0  0  0  0  0  0  0  0
    2.9153  -49.0127  -18.6767 H   0  0  0  0  0  0  0  0  0  0  0  0
    2.5873  -50.1175  -24.5391 N   0  0  0  0  0  0  0  0  0  0  0  0
    3.5913  -49.1319  -24.7203 C   0  0  0  0  0  0  0  0  0  0  0  0
    3.8706  -48.7062  -25.8487 O   0  0  0  0  0  0  0  0  0  0  0  0
    2.3381  -50.4926  -23.5793 H   0  0  0  0  0  0  0  0  0  0  0  0
    1.8239  -50.6905  -25.6340 C   0  0  0  0  0  0  0  0  0  0  0  0
   -0.4111  -53.9966  -24.1192 C   0  0  0  0  0  0  0  0  0  0  0  0
   -0.0686  -53.9082  -25.4395 C   0  0  0  0  0  0  0  0  0  0  0  0
    0.6596  -52.8508  -25.9737 C   0  0  0  0  0  0  0  0  0  0  0  0
    1.0533  -51.8472  -25.1343 C   0  0  0  0  0  0  0  0  0  0  0  0
    0.7241  -51.9092  -23.8042 C   0  0  0  0  0  0  0  0  0  0  0  0
   -0.0030  -52.9655  -23.2724 C   0  0  0  0  0  0  0  0  0  0  0  0
   -1.7577  -55.1296  -22.4405 N   0  0  0  0  0  0  0  0  0  0  0  0
   -1.1747  -55.1119  -23.5793 C   0  0  0  0  0  0  0  0  0  0  0  0
   -1.3118  -56.3146  -24.3570 N   0  0  0  0  0  0  0  0  0  0  0  0
   -1.7041  -54.3034  -21.8259 H   0  0  0  0  0  0  0  0  0  0  0  0
   -1.8145  -56.3038  -25.2694 H   0  0  0  0  0  0  0  0  0  0  0  0
   -0.8973  -57.1973  -23.9879 H   0  0  0  0  0  0  0  0  0  0  0  0
    2.7902  -51.5323  -19.5225 C   0  0  0  0  0  0  0  0  0  0  0  0
    1.4398  -51.8803  -19.0862 C   0  0  0  0  0  0  0  0  0  0  0  0
    0.8520  -51.3656  -17.9475 C   0  0  0  0  0  0  0  0  0  0  0  0
   -0.4312  -51.7223  -17.5644 C   0  0  0  0  0  0  0  0  0  0  0  0
   -1.1597  -52.6121  -18.3228 C   0  0  0  0  0  0  0  0  0  0  0  0
   -0.5972  -53.1319  -19.4512 C   0  0  0  0  0  0  0  0  0  0  0  0
    0.6929  -52.7687  -19.8300 C   0  0  0  0  0  0  0  0  0  0  0  0
 24 25  2  0  0  0
 25 26  1  0  0  0
 25 18  1  0  0  0
 18 19  2  0  0  0
 19 20  1  0  0  0
 20 21  2  0  0  0
 21 17  1  0  0  0
 17 13  1  0  0  0
 13 14  1  0  0  0
 14 15  2  0  0  0
 14  1  1  0  0  0
  1  2  1  0  0  0
  2  3  1  0  0  0
  3  4  1  0  0  0
  4  5  1  0  0  0
  5  6  1  0  0  0
  6  7  1  0  0  0
  7  8  1  0  0  0
  7 30  1  0  0  0
 30 31  1  0  0  0
 31 32  2  0  0  0
 32 33  1  0  0  0
 33 34  2  0  0  0
 34 35  1  0  0  0
 35 36  2  0  0  0
  7  9  1  0  0  0
  9 10  2  0  0  0
  9 11  1  0  0  0
 21 22  1  0  0  0
 22 23  2  0  0  0
 23 18  1  0  0  0
 11  1  1  0  0  0
 11  4  1  0  0  0
 36 31  1  0  0  0
 24 27  1  0  0  0
 26 28  1  0  0  0
 26 29  1  0  0  0
 13 16  1  0  0  0
  8 12  1  0  0  0
M  END
> <minimizedAffinity>
-8.13574

> <CNNscore>
0.1974133700

> <CNNaffinity>
6.0497941971

> <CNN_VS>
1.1943103075

> <CNNaffinity_variance>
0.1178893670

$$$$
[H]N=C(c1c([H])c([H])c(C([H])([H])N([H])C(=O)C2([H])N3C(=O)[C@](O[H])(C([H])([H])c4c([H])c([H])c([H])c([H])c4[H])C([H])([H])C([H])([H])[C@]3([H])C([H])([H])C2([H])[H])c([H])c1[H])N([H])[H]


 36 39  0  0  0  0  0  0  0  0999 V2000
    5.4577  -48.9891  -22.7535 C   0  0  0  0  0  0  0  0  0  0  0  0
    6.8777  -49.5086  -22.8298 C   0  0  0  0  0  0  0  0  0  0  0  0
    6.6328  -50.9652  -23.1932 C   0  0  0  0  0  0  0  0  0  0  0  0
    5.5899  -50.8239  -24.2781 C   0  0  0  0  0  0  0  0  0  0  0  0
    4.7277  -52.0523  -24.3990 C   0  0  0  0  0  0  0  0  0  0  0  0
    3.5695  -51.8319  -25.3153 C   0  0  0  0  0  0  0  0  0  0  0  0
    3.3445  -50.3965  -25.7001 C   0  0  0  0  0  0  0  0  0  0  0  0
    4.2321  -49.9979  -26.7139 O   0  0  0  0  0  0  0  0  0  0  0  0
    3.5140  -49.5555  -24.4861 C   0  0  0  0  0  0  0  0  0  0  0  0
    2.6620  -48.7663  -24.0378 O   0  0  0  0  0  0  0  0  0  0  0  0
    4.7716  -49.6949  -23.8089 N   0  0  0  0  0  0  0  0  0  0  0  0
    4.3523  -50.8147  -27.2841 H   0  0  0  0  0  0  0  0  0  0  0  0
    3.5329  -49.5167  -21.2640 N   0  0  0  0  0  0  0  0  0  0  0  0
    4.9400  -49.3968  -21.3985 C   0  0  0  0  0  0  0  0  0  0  0  0
    5.6932  -49.6187  -20.4414 O   0  0  0  0  0  0  0  0  0  0  0  0
    2.8753  -49.3286  -22.0740 H   0  0  0  0  0  0  0  0  0  0  0  0
    2.8790  -49.9019  -20.0254 C   0  0  0  0  0  0  0  0  0  0  0  0
   -0.0189  -52.9389  -20.7989 C   0  0  0  0  0  0  0  0  0  0  0  0
   -0.0671  -51.7260  -21.4273 C   0  0  0  0  0  0  0  0  0  0  0  0
    0.8570  -50.7106  -21.2064 C   0  0  0  0  0  0  0  0  0  0  0  0
    1.8662  -50.9374  -20.3138 C   0  0  0  0  0  0  0  0  0  0  0  0
    1.9398  -52.1453  -19.6682 C   0  0  0  0  0  0  0  0  0  0  0  0
    1.0166  -53.1581  -19.8898 C   0  0  0  0  0  0  0  0  0  0  0  0
   -2.0132  -54.2419  -20.3091 N   0  0  0  0  0  0  0  0  0  0  0  0
   -0.9965  -53.9891  -21.0436 C   0  0  0  0  0  0  0  0  0  0  0  0
   -0.8467  -54.8372  -22.1961 N   0  0  0  0  0  0  0  0  0  0  0  0
   -2.1873  -53.6761  -19.4649 H   0  0  0  0  0  0  0  0  0  0  0  0
   -0.9061  -54.4427  -23.1584 H   0  0  0  0  0  0  0  0  0  0  0  0
   -0.6773  -55.8553  -22.0476 H   0  0  0  0  0  0  0  0  0  0  0  0
    1.9558  -50.2492  -26.2758 C   0  0  0  0  0  0  0  0  0  0  0  0
    1.1520  -51.4652  -26.1743 C   0  0  0  0  0  0  0  0  0  0  0  0
    1.1582  -52.4630  -27.1291 C   0  0  0  0  0  0  0  0  0  0  0  0
    0.3789  -53.6016  -26.9987 C   0  0  0  0  0  0  0  0  0  0  0  0
   -0.4317  -53.7654  -25.8970 C   0  0  0  0  0  0  0  0  0  0  0  0
   -0.4522  -52.7913  -24.9427 C   0  0  0  0  0  0  0  0  0  0  0  0
    0.3337  -51.6498  -25.0804 C   0  0  0  0  0  0  0  0  0  0  0  0
 24 25  2  0  0  0
 25 26  1  0  0  0
 25 18  1  0  0  0
 18 19  2  0  0  0
 19 20  1  0  0  0
 20 21  2  0  0  0
 21 17  1  0  0  0
 17 13  1  0  0  0
 13 14  1  0  0  0
 14 15  2  0  0  0
 14  1  1  0  0  0
  1  2  1  0  0  0
  2  3  1  0  0  0
  3  4  1  0  0  0
  4  5  1  0  0  0
  5  6  1  0  0  0
  6  7  1  0  0  0
  7  8  1  0  0  0
  7 30  1  0  0  0
 30 31  1  0  0  0
 31 32  2  0  0  0
 32 33  1  0  0  0
 33 34  2  0  0  0
 34 35  1  0  0  0
 35 36  2  0  0  0
  7  9  1  0  0  0
  9 10  2  0  0  0
  9 11  1  0  0  0
 21 22  1  0  0  0
 22 23  2  0  0  0
 23 18  1  0  0  0
 11  1  1  0  0  0
 11  4  1  0  0  0
 36 31  1  0  0  0
 24 27  1  0  0  0
 26 28  1  0  0  0
 26 29  1  0  0  0
 13 16  1  0  0  0
  8 12  1  0  0  0
M  END
> <minimizedAffinity>
-7.56935

> <CNNscore>
0.1865668893

> <CNNaffinity>
6.0394701958

> <CNN_VS>
1.1267651320

> <CNNaffinity_variance>
0.2099423707

$$$$
[H]N=C(c1c([H])c([H])c(C([H])([H])N([H])C(=O)C2([H])N3C(=O)[C@](O[H])(C([H])([H])c4c([H])c([H])c([H])c([H])c4[H])C([H])([H])C([H])([H])[C@]3([H])C([H])([H])C2([H])[H])c([H])c1[H])N([H])[H]


 36 39  0  0  0  0  0  0  0  0999 V2000
    0.8048  -54.0880  -27.4491 C   0  0  0  0  0  0  0  0  0  0  0  0
   -0.3219  -53.5402  -28.2992 C   0  0  0  0  0  0  0  0  0  0  0  0
   -0.8187  -52.4019  -27.4210 C   0  0  0  0  0  0  0  0  0  0  0  0
    0.4866  -51.7617  -27.0072 C   0  0  0  0  0  0  0  0  0  0  0  0
    0.3679  -51.0275  -25.6981 C   0  0  0  0  0  0  0  0  0  0  0  0
    1.6982  -50.5818  -25.1868 C   0  0  0  0  0  0  0  0  0  0  0  0
    2.8740  -51.1763  -25.9100 C   0  0  0  0  0  0  0  0  0  0  0  0
    3.1105  -50.5125  -27.1257 O   0  0  0  0  0  0  0  0  0  0  0  0
    2.6008  -52.6196  -26.1382 C   0  0  0  0  0  0  0  0  0  0  0  0
    3.3356  -53.5540  -25.7684 O   0  0  0  0  0  0  0  0  0  0  0  0
    1.3861  -52.9143  -26.8431 N   0  0  0  0  0  0  0  0  0  0  0  0
    2.8727  -49.5548  -26.9445 H   0  0  0  0  0  0  0  0  0  0  0  0
   -0.3217  -54.3304  -25.2414 N   0  0  0  0  0  0  0  0  0  0  0  0
    0.1528  -54.9695  -26.4156 C   0  0  0  0  0  0  0  0  0  0  0  0
    0.0307  -56.1917  -26.5701 O   0  0  0  0  0  0  0  0  0  0  0  0
   -0.2231  -53.2851  -25.0945 H   0  0  0  0  0  0  0  0  0  0  0  0
   -0.9741  -55.0394  -24.1544 C   0  0  0  0  0  0  0  0  0  0  0  0
   -0.4054  -52.9476  -20.4774 C   0  0  0  0  0  0  0  0  0  0  0  0
    0.3568  -52.6788  -21.5797 C   0  0  0  0  0  0  0  0  0  0  0  0
    0.2034  -53.3344  -22.7964 C   0  0  0  0  0  0  0  0  0  0  0  0
   -0.7598  -54.2984  -22.8948 C   0  0  0  0  0  0  0  0  0  0  0  0
   -1.5399  -54.5894  -21.8049 C   0  0  0  0  0  0  0  0  0  0  0  0
   -1.3857  -53.9339  -20.5908 C   0  0  0  0  0  0  0  0  0  0  0  0
    0.3875  -51.1398  -19.0566 N   0  0  0  0  0  0  0  0  0  0  0  0
   -0.2289  -52.2502  -19.2120 C   0  0  0  0  0  0  0  0  0  0  0  0
   -0.7774  -52.8204  -18.0103 N   0  0  0  0  0  0  0  0  0  0  0  0
    0.8079  -50.6700  -19.8725 H   0  0  0  0  0  0  0  0  0  0  0  0
   -1.8065  -52.9367  -17.8981 H   0  0  0  0  0  0  0  0  0  0  0  0
   -0.1228  -53.1147  -17.2539 H   0  0  0  0  0  0  0  0  0  0  0  0
    4.1187  -50.9822  -25.0765 C   0  0  0  0  0  0  0  0  0  0  0  0
    3.8390  -50.6958  -23.6712 C   0  0  0  0  0  0  0  0  0  0  0  0
    3.4638  -49.4498  -23.2088 C   0  0  0  0  0  0  0  0  0  0  0  0
    3.2096  -49.2163  -21.8667 C   0  0  0  0  0  0  0  0  0  0  0  0
    3.3276  -50.2379  -20.9501 C   0  0  0  0  0  0  0  0  0  0  0  0
    3.6970  -51.4760  -21.3864 C   0  0  0  0  0  0  0  0  0  0  0  0
    3.9509  -51.7032  -22.7368 C   0  0  0  0  0  0  0  0  0  0  0  0
 24 25  2  0  0  0
 25 26  1  0  0  0
 25 18  1  0  0  0
 18 19  2  0  0  0
 19 20  1  0  0  0
 20 21  2  0  0  0
 21 17  1  0  0  0
 17 13  1  0  0  0
 13 14  1  0  0  0
 14 15  2  0  0  0
 14  1  1  0  0  0
  1  2  1  0  0  0
  2  3  1  0  0  0
  3  4  1  0  0  0
  4  5  1  0  0  0
  5  6  1  0  0  0
  6  7  1  0  0  0
  7  8  1  0  0  0
  7 30  1  0  0  0
 30 31  1  0  0  0
 31 32  2  0  0  0
 32 33  1  0  0  0
 33 34  2  0  0  0
 34 35  1  0  0  0
 35 36  2  0  0  0
  7  9  1  0  0  0
  9 10  2  0  0  0
  9 11  1  0  0  0
 21 22  1  0  0  0
 22 23  2  0  0  0
 23 18  1  0  0  0
 11  1  1  0  0  0
 11  4  1  0  0  0
 36 31  1  0  0  0
 24 27  1  0  0  0
 26 28  1  0  0  0
 26 29  1  0  0  0
 13 16  1  0  0  0
  8 12  1  0  0  0
M  END
> <minimizedAffinity>
-8.73050

> <CNNscore>
0.1804893911

> <CNNaffinity>
6.3757648468

> <CNN_VS>
1.1507579088

> <CNNaffinity_variance>
0.0920845568

$$$$
[H]c1c(OC([H])([H])[H])c(C([H])([H])N(C([H])([H])[H])C([H])([H])[H])c([H])c(OC([H])([H])[H])c1-c1c([H])n(C([H])([H])[H])c(=O)c2c([H])c([H])c([H])c([H])c12


 26 28  0  0  0  0  0  0  0  0999 V2000
    2.6360  -49.1348  -23.2095 C   0  0  0  0  0  0  0  0  0  0  0  0
    1.8193  -50.2382  -22.8614 C   0  0  0  0  0  0  0  0  0  0  0  0
    2.0072  -51.5690  -23.4627 C   0  0  0  0  0  0  0  0  0  0  0  0
    2.9521  -51.7096  -24.3604 C   0  0  0  0  0  0  0  0  0  0  0  0
    3.7593  -50.6250  -24.7893 C   0  0  0  0  0  0  0  0  0  0  0  0
    3.5700  -49.4634  -24.2252 C   0  0  0  0  0  0  0  0  0  0  0  0
    1.3158  -52.5696  -22.6473 C   0  0  0  0  0  0  0  0  0  0  0  0
    0.4297  -53.5017  -23.3131 C   0  0  0  0  0  0  0  0  0  0  0  0
   -0.6207  -54.1048  -22.6554 N   0  0  0  0  0  0  0  0  0  0  0  0
   -1.5619  -54.9749  -23.2310 C   0  0  0  0  0  0  0  0  0  0  0  0
   -0.6404  -53.6911  -21.4203 C   0  0  0  0  0  0  0  0  0  0  0  0
   -1.7465  -54.3571  -20.8103 O   0  0  0  0  0  0  0  0  0  0  0  0
   -0.0649  -52.9389  -20.5993 C   0  0  0  0  0  0  0  0  0  0  0  0
   -0.3800  -52.7036  -19.2468 C   0  0  0  0  0  0  0  0  0  0  0  0
    0.6382  -51.7344  -18.7040 C   0  0  0  0  0  0  0  0  0  0  0  0
    1.5319  -51.2425  -19.2689 C   0  0  0  0  0  0  0  0  0  0  0  0
    1.8856  -51.4466  -20.6575 C   0  0  0  0  0  0  0  0  0  0  0  0
    1.0861  -52.2772  -21.2788 C   0  0  0  0  0  0  0  0  0  0  0  0
    2.7240  -46.7203  -22.3702 C   0  0  0  0  0  0  0  0  0  0  0  0
    2.6832  -47.9338  -22.7378 O   0  0  0  0  0  0  0  0  0  0  0  0
    3.2626  -52.9638  -24.9507 O   0  0  0  0  0  0  0  0  0  0  0  0
    3.1294  -52.8578  -26.3715 C   0  0  0  0  0  0  0  0  0  0  0  0
    4.4477  -48.2879  -24.5245 C   0  0  0  0  0  0  0  0  0  0  0  0
    4.6578  -47.7522  -25.7604 N   0  0  0  0  0  0  0  0  0  0  0  0
    3.4636  -47.0807  -26.2274 C   0  0  0  0  0  0  0  0  0  0  0  0
    5.6100  -47.9154  -26.7094 C   0  0  0  0  0  0  0  0  0  0  0  0
 19 20  1  0  0  0
 20  1  1  0  0  0
  1  2  2  0  0  0
  2  3  1  0  0  0
  3  7  1  0  0  0
  7  8  2  0  0  0
  8  9  1  0  0  0
  9 10  1  0  0  0
  9 11  1  0  0  0
 11 12  2  0  0  0
 11 13  1  0  0  0
 13 14  2  0  0  0
 14 15  1  0  0  0
 15 16  2  0  0  0
 16 17  1  0  0  0
 17 18  2  0  0  0
  3  4  2  0  0  0
  4 21  1  0  0  0
 21 22  1  0  0  0
  4  5  1  0  0  0
  5  6  2  0  0  0
  6 23  1  0  0  0
 23 24  1  0  0  0
 24 25  1  0  0  0
 24 26  1  0  0  0
  6  1  1  0  0  0
 18  7  1  0  0  0
 18 13  1  0  0  0
M  END
> <minimizedAffinity>
-6.43260

> <CNNscore>
0.5820826888

> <CNNaffinity>
6.0519380569

> <CNN_VS>
3.5227284431

> <CNNaffinity_variance>
0.1282212287

$$$$
[H]c1c(OC([H])([H])[H])c(C([H])([H])N(C([H])([H])[H])C([H])([H])[H])c([H])c(OC([H])([H])[H])c1-c1c([H])n(C([H])([H])[H])c(=O)c2c([H])c([H])c([H])c([H])c12


 26 28  0  0  0  0  0  0  0  0999 V2000
    3.6304  -50.4548  -24.7026 C   0  0  0  0  0  0  0  0  0  0  0  0
    2.8169  -51.0962  -23.7369 C   0  0  0  0  0  0  0  0  0  0  0  0
    1.4164  -51.4581  -24.0123 C   0  0  0  0  0  0  0  0  0  0  0  0
    0.9218  -51.1499  -25.1864 C   0  0  0  0  0  0  0  0  0  0  0  0
    1.6734  -50.4550  -26.1683 C   0  0  0  0  0  0  0  0  0  0  0  0
    2.9144  -50.1609  -25.8913 C   0  0  0  0  0  0  0  0  0  0  0  0
    0.9656  -52.4346  -23.0187 C   0  0  0  0  0  0  0  0  0  0  0  0
    0.2379  -53.5975  -23.4828 C   0  0  0  0  0  0  0  0  0  0  0  0
   -0.6474  -54.2745  -22.6718 N   0  0  0  0  0  0  0  0  0  0  0  0
   -1.4362  -55.3736  -23.0512 C   0  0  0  0  0  0  0  0  0  0  0  0
   -0.6831  -53.6935  -21.5064 C   0  0  0  0  0  0  0  0  0  0  0  0
   -1.6136  -54.4486  -20.7298 O   0  0  0  0  0  0  0  0  0  0  0  0
   -0.2189  -52.7381  -20.8410 C   0  0  0  0  0  0  0  0  0  0  0  0
   -0.5053  -52.3660  -19.5131 C   0  0  0  0  0  0  0  0  0  0  0  0
    0.3390  -51.1616  -19.1854 C   0  0  0  0  0  0  0  0  0  0  0  0
    1.0958  -50.6071  -19.8778 C   0  0  0  0  0  0  0  0  0  0  0  0
    1.4126  -50.9473  -21.2485 C   0  0  0  0  0  0  0  0  0  0  0  0
    0.7530  -51.9894  -21.6891 C   0  0  0  0  0  0  0  0  0  0  0  0
    6.1190  -49.8791  -24.5698 C   0  0  0  0  0  0  0  0  0  0  0  0
    4.8829  -50.1416  -24.6816 O   0  0  0  0  0  0  0  0  0  0  0  0
   -0.3938  -51.5145  -25.5793 O   0  0  0  0  0  0  0  0  0  0  0  0
   -0.3378  -52.1687  -26.8508 C   0  0  0  0  0  0  0  0  0  0  0  0
    3.8223  -49.5344  -26.9037 C   0  0  0  0  0  0  0  0  0  0  0  0
    3.8536  -48.2100  -27.2256 N   0  0  0  0  0  0  0  0  0  0  0  0
    5.0751  -47.8933  -27.9347 C   0  0  0  0  0  0  0  0  0  0  0  0
    3.1449  -47.1264  -26.8291 C   0  0  0  0  0  0  0  0  0  0  0  0
 19 20  1  0  0  0
 20  1  1  0  0  0
  1  2  2  0  0  0
  2  3  1  0  0  0
  3  7  1  0  0  0
  7  8  2  0  0  0
  8  9  1  0  0  0
  9 10  1  0  0  0
  9 11  1  0  0  0
 11 12  2  0  0  0
 11 13  1  0  0  0
 13 14  2  0  0  0
 14 15  1  0  0  0
 15 16  2  0  0  0
 16 17  1  0  0  0
 17 18  2  0  0  0
  3  4  2  0  0  0
  4 21  1  0  0  0
 21 22  1  0  0  0
  4  5  1  0  0  0
  5  6  2  0  0  0
  6 23  1  0  0  0
 23 24  1  0  0  0
 24 25  1  0  0  0
 24 26  1  0  0  0
  6  1  1  0  0  0
 18  7  1  0  0  0
 18 13  1  0  0  0
M  END
> <minimizedAffinity>
-6.58265

> <CNNscore>
0.5641118884

> <CNNaffinity>
6.0446119308

> <CNN_VS>
3.4098374844

> <CNNaffinity_variance>
0.2784223557

$$$$
[H]c1c(OC([H])([H])[H])c(C([H])([H])N(C([H])([H])[H])C([H])([H])[H])c([H])c(OC([H])([H])[H])c1-c1c([H])n(C([H])([H])[H])c(=O)c2c([H])c([H])c([H])c([H])c12


 26 28  0  0  0  0  0  0  0  0999 V2000
    3.2211  -49.2054  -23.5500 C   0  0  0  0  0  0  0  0  0  0  0  0
    2.2415  -50.2275  -23.5116 C   0  0  0  0  0  0  0  0  0  0  0  0
    2.1873  -51.2163  -22.4219 C   0  0  0  0  0  0  0  0  0  0  0  0
    3.0955  -51.1422  -21.4795 C   0  0  0  0  0  0  0  0  0  0  0  0
    4.1341  -50.1764  -21.5002 C   0  0  0  0  0  0  0  0  0  0  0  0
    4.1423  -49.3104  -22.4766 C   0  0  0  0  0  0  0  0  0  0  0  0
    0.8783  -51.8723  -22.4295 C   0  0  0  0  0  0  0  0  0  0  0  0
    0.1900  -52.0415  -21.1666 C   0  0  0  0  0  0  0  0  0  0  0  0
   -0.7336  -53.0453  -20.9691 N   0  0  0  0  0  0  0  0  0  0  0  0
   -1.4066  -53.3199  -19.7666 C   0  0  0  0  0  0  0  0  0  0  0  0
   -0.8410  -53.7432  -22.0638 C   0  0  0  0  0  0  0  0  0  0  0  0
   -1.8094  -54.7538  -21.7810 O   0  0  0  0  0  0  0  0  0  0  0  0
   -0.4118  -53.8527  -23.2363 C   0  0  0  0  0  0  0  0  0  0  0  0
   -0.7605  -54.7997  -24.2189 C   0  0  0  0  0  0  0  0  0  0  0  0
    0.0243  -54.4747  -25.4636 C   0  0  0  0  0  0  0  0  0  0  0  0
    0.7927  -53.6119  -25.6214 C   0  0  0  0  0  0  0  0  0  0  0  0
    1.1883  -52.6252  -24.6391 C   0  0  0  0  0  0  0  0  0  0  0  0
    0.5848  -52.7716  -23.4861 C   0  0  0  0  0  0  0  0  0  0  0  0
    3.4580  -47.2769  -25.2134 C   0  0  0  0  0  0  0  0  0  0  0  0
    3.3767  -48.2114  -24.3593 O   0  0  0  0  0  0  0  0  0  0  0  0
    3.0928  -52.0018  -20.3486 O   0  0  0  0  0  0  0  0  0  0  0  0
    3.1765  -51.2104  -19.1593 C   0  0  0  0  0  0  0  0  0  0  0  0
    5.1258  -48.1824  -22.5232 C   0  0  0  0  0  0  0  0  0  0  0  0
    5.0746  -47.0564  -21.7563 N   0  0  0  0  0  0  0  0  0  0  0  0
    6.1271  -47.0760  -20.7629 C   0  0  0  0  0  0  0  0  0  0  0  0
    4.1481  -46.0875  -21.5646 C   0  0  0  0  0  0  0  0  0  0  0  0
 19 20  1  0  0  0
 20  1  1  0  0  0
  1  2  2  0  0  0
  2  3  1  0  0  0
  3  7  1  0  0  0
  7  8  2  0  0  0
  8  9  1  0  0  0
  9 10  1  0  0  0
  9 11  1  0  0  0
 11 12  2  0  0  0
 11 13  1  0  0  0
 13 14  2  0  0  0
 14 15  1  0  0  0
 15 16  2  0  0  0
 16 17  1  0  0  0
 17 18  2  0  0  0
  3  4  2  0  0  0
  4 21  1  0  0  0
 21 22  1  0  0  0
  4  5  1  0  0  0
  5  6  2  0  0  0
  6 23  1  0  0  0
 23 24  1  0  0  0
 24 25  1  0  0  0
 24 26  1  0  0  0
  6  1  1  0  0  0
 18  7  1  0  0  0
 18 13  1  0  0  0
M  END
> <minimizedAffinity>
-6.57198

> <CNNscore>
0.5325588584

> <CNNaffinity>
6.0234432220

> <CNN_VS>
3.2078380585

> <CNNaffinity_variance>
0.2670543492

$$$$
[H]c1c(OC([H])([H])[H])c(C([H])([H])N(C([H])([H])[H])C([H])([H])[H])c([H])c(OC([H])([H])[H])c1-c1c([H])n(C([H])([H])[H])c(=O)c2c([H])c([H])c([H])c([H])c12


 26 28  0  0  0  0  0  0  0  0999 V2000
   -0.2593  -52.3473  -21.9525 C   0  0  0  0  0  0  0  0  0  0  0  0
   -0.3118  -52.5888  -23.3470 C   0  0  0  0  0  0  0  0  0  0  0  0
    0.4927  -51.8117  -24.3046 C   0  0  0  0  0  0  0  0  0  0  0  0
    1.2587  -50.8586  -23.8322 C   0  0  0  0  0  0  0  0  0  0  0  0
    1.3043  -50.5352  -22.4519 C   0  0  0  0  0  0  0  0  0  0  0  0
    0.5853  -51.2535  -21.6331 C   0  0  0  0  0  0  0  0  0  0  0  0
    0.5418  -52.5233  -25.5834 C   0  0  0  0  0  0  0  0  0  0  0  0
    1.8390  -52.7861  -26.1712 C   0  0  0  0  0  0  0  0  0  0  0  0
    2.0025  -52.9569  -27.5291 N   0  0  0  0  0  0  0  0  0  0  0  0
    3.2246  -53.1591  -28.1922 C   0  0  0  0  0  0  0  0  0  0  0  0
    0.8438  -52.8404  -28.1129 C   0  0  0  0  0  0  0  0  0  0  0  0
    1.0953  -53.0302  -29.5057 O   0  0  0  0  0  0  0  0  0  0  0  0
   -0.3727  -52.6214  -27.9053 C   0  0  0  0  0  0  0  0  0  0  0  0
   -1.4274  -52.5468  -28.8360 C   0  0  0  0  0  0  0  0  0  0  0  0
   -2.6967  -52.2878  -28.0662 C   0  0  0  0  0  0  0  0  0  0  0  0
   -2.8226  -52.1598  -26.9140 C   0  0  0  0  0  0  0  0  0  0  0  0
   -1.7682  -52.2179  -25.9242 C   0  0  0  0  0  0  0  0  0  0  0  0
   -0.5854  -52.4419  -26.4401 C   0  0  0  0  0  0  0  0  0  0  0  0
   -1.4433  -53.5690  -20.0425 C   0  0  0  0  0  0  0  0  0  0  0  0
   -0.8118  -52.9678  -20.9641 O   0  0  0  0  0  0  0  0  0  0  0  0
    2.1258  -50.0965  -24.6600 O   0  0  0  0  0  0  0  0  0  0  0  0
    3.4349  -50.0867  -24.0821 C   0  0  0  0  0  0  0  0  0  0  0  0
    0.6555  -51.0668  -20.1492 C   0  0  0  0  0  0  0  0  0  0  0  0
    1.7649  -51.2567  -19.3799 N   0  0  0  0  0  0  0  0  0  0  0  0
    1.5667  -50.6904  -18.0626 C   0  0  0  0  0  0  0  0  0  0  0  0
    3.0431  -51.6193  -19.6417 C   0  0  0  0  0  0  0  0  0  0  0  0
 19 20  1  0  0  0
 20  1  1  0  0  0
  1  2  2  0  0  0
  2  3  1  0  0  0
  3  7  1  0  0  0
  7  8  2  0  0  0
  8  9  1  0  0  0
  9 10  1  0  0  0
  9 11  1  0  0  0
 11 12  2  0  0  0
 11 13  1  0  0  0
 13 14  2  0  0  0
 14 15  1  0  0  0
 15 16  2  0  0  0
 16 17  1  0  0  0
 17 18  2  0  0  0
  3  4  2  0  0  0
  4 21  1  0  0  0
 21 22  1  0  0  0
  4  5  1  0  0  0
  5  6  2  0  0  0
  6 23  1  0  0  0
 23 24  1  0  0  0
 24 25  1  0  0  0
 24 26  1  0  0  0
  6  1  1  0  0  0
 18  7  1  0  0  0
 18 13  1  0  0  0
M  END
> <minimizedAffinity>
-7.21711

> <CNNscore>
0.3734514117

> <CNNaffinity>
5.9656844139

> <CNN_VS>
2.2278933525

> <CNNaffinity_variance>
0.1452456862

$$$$
[H]c1c(OC([H])([H])[H])c(C([H])([H])N(C([H])([H])[H])C([H])([H])[H])c([H])c(OC([H])([H])[H])c1-c1c([H])n(C([H])([H])[H])c(=O)c2c([H])c([H])c([H])c([H])c12


 26 28  0  0  0  0  0  0  0  0999 V2000
    1.8085  -50.0938  -22.8639 C   0  0  0  0  0  0  0  0  0  0  0  0
    1.8011  -50.9801  -23.9685 C   0  0  0  0  0  0  0  0  0  0  0  0
    1.1324  -52.2907  -23.9133 C   0  0  0  0  0  0  0  0  0  0  0  0
    0.5496  -52.6362  -22.7910 C   0  0  0  0  0  0  0  0  0  0  0  0
    0.5779  -51.8131  -21.6362 C   0  0  0  0  0  0  0  0  0  0  0  0
    1.1711  -50.6541  -21.7275 C   0  0  0  0  0  0  0  0  0  0  0  0
    0.9445  -52.7950  -25.2751 C   0  0  0  0  0  0  0  0  0  0  0  0
    2.1210  -53.0330  -26.0853 C   0  0  0  0  0  0  0  0  0  0  0  0
    2.0765  -52.9978  -27.4624 N   0  0  0  0  0  0  0  0  0  0  0  0
    3.1728  -53.1601  -28.3261 C   0  0  0  0  0  0  0  0  0  0  0  0
    0.8591  -52.7284  -27.8399 C   0  0  0  0  0  0  0  0  0  0  0  0
    0.8950  -52.7114  -29.2673 O   0  0  0  0  0  0  0  0  0  0  0  0
   -0.2951  -52.4786  -27.4199 C   0  0  0  0  0  0  0  0  0  0  0  0
   -1.4622  -52.2019  -28.1583 C   0  0  0  0  0  0  0  0  0  0  0  0
   -2.5856  -51.9978  -27.1749 C   0  0  0  0  0  0  0  0  0  0  0  0
   -2.5365  -52.0449  -26.0108 C   0  0  0  0  0  0  0  0  0  0  0  0
   -1.3600  -52.3146  -25.2122 C   0  0  0  0  0  0  0  0  0  0  0  0
   -0.2832  -52.5193  -25.9291 C   0  0  0  0  0  0  0  0  0  0  0  0
    2.6016  -47.6717  -22.6474 C   0  0  0  0  0  0  0  0  0  0  0  0
    2.2568  -48.8884  -22.7482 O   0  0  0  0  0  0  0  0  0  0  0  0
   -0.1818  -53.8460  -22.6525 O   0  0  0  0  0  0  0  0  0  0  0  0
   -0.1614  -54.2504  -21.2800 C   0  0  0  0  0  0  0  0  0  0  0  0
    1.1526  -49.6668  -20.6020 C   0  0  0  0  0  0  0  0  0  0  0  0
    1.9198  -49.7355  -19.4772 N   0  0  0  0  0  0  0  0  0  0  0  0
    2.2698  -48.4059  -19.0249 C   0  0  0  0  0  0  0  0  0  0  0  0
    2.6028  -50.7293  -18.8610 C   0  0  0  0  0  0  0  0  0  0  0  0
 19 20  1  0  0  0
 20  1  1  0  0  0
  1  2  2  0  0  0
  2  3  1  0  0  0
  3  7  1  0  0  0
  7  8  2  0  0  0
  8  9  1  0  0  0
  9 10  1  0  0  0
  9 11  1  0  0  0
 11 12  2  0  0  0
 11 13  1  0  0  0
 13 14  2  0  0  0
 14 15  1  0  0  0
 15 16  2  0  0  0
 16 17  1  0  0  0
 17 18  2  0  0  0
  3  4  2  0  0  0
  4 21  1  0  0  0
 21 22  1  0  0  0
  4  5  1  0  0  0
  5  6  2  0  0  0
  6 23  1  0  0  0
 23 24  1  0  0  0
 24 25  1  0  0  0
 24 26  1  0  0  0
  6  1  1  0  0  0
 18  7  1  0  0  0
 18 13  1  0  0  0
M  END
> <minimizedAffinity>
-6.35729

> <CNNscore>
0.3299849927

> <CNNaffinity>
5.9775481224

> <CNN_VS>
1.9725011587

> <CNNaffinity_variance>
0.2037332952

$$$$
[H]c1c(OC([H])([H])[H])c(C([H])([H])N(C([H])([H])[H])C([H])([H])[H])c([H])c(OC([H])([H])[H])c1-c1c([H])n(C([H])([H])[H])c(=O)c2c([H])c([H])c([H])c([H])c12


 26 28  0  0  0  0  0  0  0  0999 V2000
   -0.7801  -52.5943  -25.5294 C   0  0  0  0  0  0  0  0  0  0  0  0
   -0.5971  -52.0129  -24.2511 C   0  0  0  0  0  0  0  0  0  0  0  0
    0.6787  -52.1142  -23.5229 C   0  0  0  0  0  0  0  0  0  0  0  0
    1.6550  -52.7848  -24.0846 C   0  0  0  0  0  0  0  0  0  0  0  0
    1.5069  -53.4368  -25.3355 C   0  0  0  0  0  0  0  0  0  0  0  0
    0.3648  -53.3151  -25.9553 C   0  0  0  0  0  0  0  0  0  0  0  0
    0.7060  -51.1130  -22.4548 C   0  0  0  0  0  0  0  0  0  0  0  0
    1.5448  -49.9459  -22.6318 C   0  0  0  0  0  0  0  0  0  0  0  0
    2.0461  -49.2396  -21.5596 N   0  0  0  0  0  0  0  0  0  0  0  0
    2.9096  -48.1336  -21.6335 C   0  0  0  0  0  0  0  0  0  0  0  0
    1.6390  -49.7997  -20.4561 C   0  0  0  0  0  0  0  0  0  0  0  0
    2.1946  -49.0151  -19.4002 O   0  0  0  0  0  0  0  0  0  0  0  0
    0.9648  -50.7514  -19.9973 C   0  0  0  0  0  0  0  0  0  0  0  0
    0.7251  -51.0955  -18.6526 C   0  0  0  0  0  0  0  0  0  0  0  0
   -0.1688  -52.3086  -18.6452 C   0  0  0  0  0  0  0  0  0  0  0  0
   -0.5980  -52.8881  -19.5616 C   0  0  0  0  0  0  0  0  0  0  0  0
   -0.3697  -52.5772  -20.9566 C   0  0  0  0  0  0  0  0  0  0  0  0
    0.3982  -51.5314  -21.1352 C   0  0  0  0  0  0  0  0  0  0  0  0
   -2.7504  -52.3872  -27.1474 C   0  0  0  0  0  0  0  0  0  0  0  0
   -1.7762  -52.5411  -26.3493 O   0  0  0  0  0  0  0  0  0  0  0  0
    2.9460  -52.8849  -23.5005 O   0  0  0  0  0  0  0  0  0  0  0  0
    3.9215  -52.4232  -24.4402 C   0  0  0  0  0  0  0  0  0  0  0  0
    0.1502  -53.8666  -27.3307 C   0  0  0  0  0  0  0  0  0  0  0  0
    0.8623  -53.5217  -28.4409 N   0  0  0  0  0  0  0  0  0  0  0  0
   -0.0025  -52.8980  -29.4198 C   0  0  0  0  0  0  0  0  0  0  0  0
    2.0910  -53.8435  -28.9106 C   0  0  0  0  0  0  0  0  0  0  0  0
 19 20  1  0  0  0
 20  1  1  0  0  0
  1  2  2  0  0  0
  2  3  1  0  0  0
  3  7  1  0  0  0
  7  8  2  0  0  0
  8  9  1  0  0  0
  9 10  1  0  0  0
  9 11  1  0  0  0
 11 12  2  0  0  0
 11 13  1  0  0  0
 13 14  2  0  0  0
 14 15  1  0  0  0
 15 16  2  0  0  0
 16 17  1  0  0  0
 17 18  2  0  0  0
  3  4  2  0  0  0
  4 21  1  0  0  0
 21 22  1  0  0  0
  4  5  1  0  0  0
  5  6  2  0  0  0
  6 23  1  0  0  0
 23 24  1  0  0  0
 24 25  1  0  0  0
 24 26  1  0  0  0
  6  1  1  0  0  0
 18  7  1  0  0  0
 18 13  1  0  0  0
M  END
> <minimizedAffinity>
-7.02644

> <CNNscore>
0.3138935864

> <CNNaffinity>
5.9523186684

> <CNN_VS>
1.8683946133

> <CNNaffinity_variance>
0.1860619336

$$$$
[H]c1c(OC([H])([H])[H])c(C([H])([H])N(C([H])([H])[H])C([H])([H])[H])c([H])c(OC([H])([H])[H])c1-c1c([H])n(C([H])([H])[H])c(=O)c2c([H])c([H])c([H])c([H])c12


 26 28  0  0  0  0  0  0  0  0999 V2000
   -0.2460  -52.1101  -25.1925 C   0  0  0  0  0  0  0  0  0  0  0  0
    0.0100  -52.2142  -23.8035 C   0  0  0  0  0  0  0  0  0  0  0  0
    1.3737  -52.3708  -23.2707 C   0  0  0  0  0  0  0  0  0  0  0  0
    2.3643  -52.4337  -24.1268 C   0  0  0  0  0  0  0  0  0  0  0  0
    2.1589  -52.3945  -25.5298 C   0  0  0  0  0  0  0  0  0  0  0  0
    0.9371  -52.2442  -25.9634 C   0  0  0  0  0  0  0  0  0  0  0  0
    1.3730  -52.0540  -21.8411 C   0  0  0  0  0  0  0  0  0  0  0  0
    0.6044  -52.9009  -20.9526 C   0  0  0  0  0  0  0  0  0  0  0  0
    0.1143  -52.4399  -19.7497 N   0  0  0  0  0  0  0  0  0  0  0  0
   -0.6850  -53.1685  -18.8528 C   0  0  0  0  0  0  0  0  0  0  0  0
    0.4607  -51.1929  -19.6014 C   0  0  0  0  0  0  0  0  0  0  0  0
   -0.0788  -50.7922  -18.3414 O   0  0  0  0  0  0  0  0  0  0  0  0
    1.0695  -50.2434  -20.1480 C   0  0  0  0  0  0  0  0  0  0  0  0
    1.2542  -48.9276  -19.6803 C   0  0  0  0  0  0  0  0  0  0  0  0
    2.0798  -48.1921  -20.7041 C   0  0  0  0  0  0  0  0  0  0  0  0
    2.5007  -48.5996  -21.7123 C   0  0  0  0  0  0  0  0  0  0  0  0
    2.3268  -49.9375  -22.2362 C   0  0  0  0  0  0  0  0  0  0  0  0
    1.6223  -50.7136  -21.4509 C   0  0  0  0  0  0  0  0  0  0  0  0
   -2.4672  -51.7162  -26.3981 C   0  0  0  0  0  0  0  0  0  0  0  0
   -1.3418  -51.8850  -25.8372 O   0  0  0  0  0  0  0  0  0  0  0  0
    3.7221  -52.5144  -23.7174 O   0  0  0  0  0  0  0  0  0  0  0  0
    4.5429  -51.8554  -24.6868 C   0  0  0  0  0  0  0  0  0  0  0  0
    0.6313  -52.0740  -27.4192 C   0  0  0  0  0  0  0  0  0  0  0  0
    0.7370  -53.0469  -28.3684 N   0  0  0  0  0  0  0  0  0  0  0  0
   -0.3779  -52.9751  -29.2887 C   0  0  0  0  0  0  0  0  0  0  0  0
    1.4853  -54.1690  -28.4891 C   0  0  0  0  0  0  0  0  0  0  0  0
 19 20  1  0  0  0
 20  1  1  0  0  0
  1  2  2  0  0  0
  2  3  1  0  0  0
  3  7  1  0  0  0
  7  8  2  0  0  0
  8  9  1  0  0  0
  9 10  1  0  0  0
  9 11  1  0  0  0
 11 12  2  0  0  0
 11 13  1  0  0  0
 13 14  2  0  0  0
 14 15  1  0  0  0
 15 16  2  0  0  0
 16 17  1  0  0  0
 17 18  2  0  0  0
  3  4  2  0  0  0
  4 21  1  0  0  0
 21 22  1  0  0  0
  4  5  1  0  0  0
  5  6  2  0  0  0
  6 23  1  0  0  0
 23 24  1  0  0  0
 24 25  1  0  0  0
 24 26  1  0  0  0
  6  1  1  0  0  0
 18  7  1  0  0  0
 18 13  1  0  0  0
M  END
> <minimizedAffinity>
-6.89982

> <CNNscore>
0.2987781465

> <CNNaffinity>
5.9436993599

> <CNN_VS>
1.7758474350

> <CNNaffinity_variance>
0.0894995406

$$$$
[H]c1c(OC([H])([H])[H])c(C([H])([H])N(C([H])([H])[H])C([H])([H])[H])c([H])c(OC([H])([H])[H])c1-c1c([H])n(C([H])([H])[H])c(=O)c2c([H])c([H])c([H])c([H])c12


 26 28  0  0  0  0  0  0  0  0999 V2000
    0.2278  -51.1481  -19.0729 C   0  0  0  0  0  0  0  0  0  0  0  0
    0.2237  -51.6506  -20.3970 C   0  0  0  0  0  0  0  0  0  0  0  0
    0.8182  -50.9029  -21.5175 C   0  0  0  0  0  0  0  0  0  0  0  0
    1.3439  -49.7294  -21.2628 C   0  0  0  0  0  0  0  0  0  0  0  0
    1.3221  -49.1528  -19.9670 C   0  0  0  0  0  0  0  0  0  0  0  0
    0.7960  -49.8506  -18.9977 C   0  0  0  0  0  0  0  0  0  0  0  0
    1.0234  -51.8099  -22.6486 C   0  0  0  0  0  0  0  0  0  0  0  0
    1.6098  -51.2730  -23.8590 C   0  0  0  0  0  0  0  0  0  0  0  0
    1.3825  -51.8424  -25.0934 N   0  0  0  0  0  0  0  0  0  0  0  0
    1.8611  -51.3603  -26.3233 C   0  0  0  0  0  0  0  0  0  0  0  0
    0.5979  -52.8720  -24.9466 C   0  0  0  0  0  0  0  0  0  0  0  0
    0.4130  -53.4035  -26.2590 O   0  0  0  0  0  0  0  0  0  0  0  0
   -0.0405  -53.5410  -24.1006 C   0  0  0  0  0  0  0  0  0  0  0  0
   -0.8579  -54.6702  -24.3029 C   0  0  0  0  0  0  0  0  0  0  0  0
   -1.3699  -55.1091  -22.9553 C   0  0  0  0  0  0  0  0  0  0  0  0
   -1.1572  -54.6258  -21.9157 C   0  0  0  0  0  0  0  0  0  0  0  0
   -0.3347  -53.4620  -21.6629 C   0  0  0  0  0  0  0  0  0  0  0  0
    0.1933  -52.9553  -22.7491 C   0  0  0  0  0  0  0  0  0  0  0  0
   -0.6330  -52.1962  -16.9043 C   0  0  0  0  0  0  0  0  0  0  0  0
   -0.1581  -51.6829  -17.9628 O   0  0  0  0  0  0  0  0  0  0  0  0
    2.0037  -48.9576  -22.2561 O   0  0  0  0  0  0  0  0  0  0  0  0
    2.7388  -47.9071  -21.6205 C   0  0  0  0  0  0  0  0  0  0  0  0
    0.8307  -49.3798  -17.5768 C   0  0  0  0  0  0  0  0  0  0  0  0
    1.9589  -49.1665  -16.8417 N   0  0  0  0  0  0  0  0  0  0  0  0
    1.8361  -49.7874  -15.5399 C   0  0  0  0  0  0  0  0  0  0  0  0
    3.0177  -48.3307  -16.9605 C   0  0  0  0  0  0  0  0  0  0  0  0
 19 20  1  0  0  0
 20  1  1  0  0  0
  1  2  2  0  0  0
  2  3  1  0  0  0
  3  7  1  0  0  0
  7  8  2  0  0  0
  8  9  1  0  0  0
  9 10  1  0  0  0
  9 11  1  0  0  0
 11 12  2  0  0  0
 11 13  1  0  0  0
 13 14  2  0  0  0
 14 15  1  0  0  0
 15 16  2  0  0  0
 16 17  1  0  0  0
 17 18  2  0  0  0
  3  4  2  0  0  0
  4 21  1  0  0  0
 21 22  1  0  0  0
  4  5  1  0  0  0
  5  6  2  0  0  0
  6 23  1  0  0  0
 23 24  1  0  0  0
 24 25  1  0  0  0
 24 26  1  0  0  0
  6  1  1  0  0  0
 18  7  1  0  0  0
 18 13  1  0  0  0
M  END
> <minimizedAffinity>
-7.09912

> <CNNscore>
0.2943196893

> <CNNaffinity>
5.7230572701

> <CNN_VS>
1.6844084263

> <CNNaffinity_variance>
0.0937648937

$$$$
[H]c1c(OC([H])([H])[H])c(C([H])([H])N(C([H])([H])[H])C([H])([H])[H])c([H])c(OC([H])([H])[H])c1-c1c([H])n(C([H])([H])[H])c(=O)c2c([H])c([H])c([H])c([H])c12


 26 28  0  0  0  0  0  0  0  0999 V2000
   -0.1870  -52.0252  -24.9015 C   0  0  0  0  0  0  0  0  0  0  0  0
   -0.2186  -51.6275  -23.5426 C   0  0  0  0  0  0  0  0  0  0  0  0
    0.9970  -51.5871  -22.7126 C   0  0  0  0  0  0  0  0  0  0  0  0
    2.1289  -51.9538  -23.2627 C   0  0  0  0  0  0  0  0  0  0  0  0
    2.2076  -52.4173  -24.6010 C   0  0  0  0  0  0  0  0  0  0  0  0
    1.1106  -52.4285  -25.3081 C   0  0  0  0  0  0  0  0  0  0  0  0
    0.7393  -50.7811  -21.5176 C   0  0  0  0  0  0  0  0  0  0  0  0
    1.4763  -49.5453  -21.3534 C   0  0  0  0  0  0  0  0  0  0  0  0
    1.7117  -48.9970  -20.1110 N   0  0  0  0  0  0  0  0  0  0  0  0
    2.4609  -47.8370  -19.8514 C   0  0  0  0  0  0  0  0  0  0  0  0
    1.1769  -49.7622  -19.2023 C   0  0  0  0  0  0  0  0  0  0  0  0
    1.4605  -49.1305  -17.9535 O   0  0  0  0  0  0  0  0  0  0  0  0
    0.5310  -50.8223  -19.0292 C   0  0  0  0  0  0  0  0  0  0  0  0
    0.0972  -51.4042  -17.8221 C   0  0  0  0  0  0  0  0  0  0  0  0
   -0.6598  -52.6604  -18.1683 C   0  0  0  0  0  0  0  0  0  0  0  0
   -0.8641  -53.1053  -19.2266 C   0  0  0  0  0  0  0  0  0  0  0  0
   -0.4294  -52.5483  -20.4898 C   0  0  0  0  0  0  0  0  0  0  0  0
    0.2504  -51.4366  -20.3590 C   0  0  0  0  0  0  0  0  0  0  0  0
   -2.0894  -52.0318  -26.6112 C   0  0  0  0  0  0  0  0  0  0  0  0
   -1.1134  -52.0422  -25.8007 O   0  0  0  0  0  0  0  0  0  0  0  0
    3.3689  -51.8865  -22.5731 O   0  0  0  0  0  0  0  0  0  0  0  0
    4.3014  -51.1383  -23.3595 C   0  0  0  0  0  0  0  0  0  0  0  0
    1.1118  -52.7882  -26.7615 C   0  0  0  0  0  0  0  0  0  0  0  0
    0.9974  -54.0504  -27.2639 N   0  0  0  0  0  0  0  0  0  0  0  0
    1.6145  -54.1296  -28.5708 C   0  0  0  0  0  0  0  0  0  0  0  0
    0.2512  -55.1317  -26.9358 C   0  0  0  0  0  0  0  0  0  0  0  0
 19 20  1  0  0  0
 20  1  1  0  0  0
  1  2  2  0  0  0
  2  3  1  0  0  0
  3  7  1  0  0  0
  7  8  2  0  0  0
  8  9  1  0  0  0
  9 10  1  0  0  0
  9 11  1  0  0  0
 11 12  2  0  0  0
 11 13  1  0  0  0
 13 14  2  0  0  0
 14 15  1  0  0  0
 15 16  2  0  0  0
 16 17  1  0  0  0
 17 18  2  0  0  0
  3  4  2  0  0  0
  4 21  1  0  0  0
 21 22  1  0  0  0
  4  5  1  0  0  0
  5  6  2  0  0  0
  6 23  1  0  0  0
 23 24  1  0  0  0
 24 25  1  0  0  0
 24 26  1  0  0  0
  6  1  1  0  0  0
 18  7  1  0  0  0
 18 13  1  0  0  0
M  END
> <minimizedAffinity>
-6.92296

> <CNNscore>
0.2739692032

> <CNNaffinity>
5.8574299812

> <CNN_VS>
1.6047554016

> <CNNaffinity_variance>
0.1152359694

$$$$
[H]c1nc([H])c(N([H])C(=O)c2nn(-c3c([H])c([H])c([H])c([H])c3Cl)c(-c3c([H])c([H])c(Cl)c([H])c3[H])c2C([H])([H])C(=O)N([H])[H])c(C([H])([H])[H])c1[H]


 36 39  0  0  0  0  0  0  0  0999 V2000
    0.8494  -52.0684  -22.9992 C   0  0  0  0  0  0  0  0  0  0  0  0
    2.0002  -51.4151  -22.7766 N   0  0  0  0  0  0  0  0  0  0  0  0
    2.0721  -50.9761  -21.5138 N   0  0  0  0  0  0  0  0  0  0  0  0
    0.9343  -51.3378  -20.8428 C   0  0  0  0  0  0  0  0  0  0  0  0
    0.1816  -52.0197  -21.7758 C   0  0  0  0  0  0  0  0  0  0  0  0
    3.1913  -50.2321  -21.0809 C   0  0  0  0  0  0  0  0  0  0  0  0
    4.2216  -50.8574  -20.4182 C   0  0  0  0  0  0  0  0  0  0  0  0
    5.3276  -50.1335  -19.9567 C   0  0  0  0  0  0  0  0  0  0  0  0
    5.4064  -48.7663  -20.1595 C   0  0  0  0  0  0  0  0  0  0  0  0
    4.3755  -48.1464  -20.8216 C   0  0  0  0  0  0  0  0  0  0  0  0
    3.2888  -48.8574  -21.2749 C   0  0  0  0  0  0  0  0  0  0  0  0
    1.9686  -48.0810  -22.1198 Cl  0  0  0  0  0  0  0  0  0  0  0  0
    0.5882  -50.9108  -19.4962 C   0  0  0  0  0  0  0  0  0  0  0  0
   -0.0304  -51.6954  -18.5562 C   0  0  0  0  0  0  0  0  0  0  0  0
   -0.2593  -51.3194  -17.2387 C   0  0  0  0  0  0  0  0  0  0  0  0
    0.1493  -50.0794  -16.8182 C   0  0  0  0  0  0  0  0  0  0  0  0
   -0.1505  -49.6305  -15.1561 Cl  0  0  0  0  0  0  0  0  0  0  0  0
    0.7671  -49.2570  -17.7069 C   0  0  0  0  0  0  0  0  0  0  0  0
    0.9905  -49.6536  -19.0298 C   0  0  0  0  0  0  0  0  0  0  0  0
    0.4540  -51.8763  -25.4242 N   0  0  0  0  0  0  0  0  0  0  0  0
    0.4254  -52.6765  -24.2632 C   0  0  0  0  0  0  0  0  0  0  0  0
    0.0580  -53.8491  -24.2994 O   0  0  0  0  0  0  0  0  0  0  0  0
    0.7963  -50.8689  -25.2575 H   0  0  0  0  0  0  0  0  0  0  0  0
   -2.2484  -51.8221  -26.0645 C   0  0  0  0  0  0  0  0  0  0  0  0
   -1.2561  -52.1946  -27.0887 C   0  0  0  0  0  0  0  0  0  0  0  0
   -1.6773  -52.5128  -28.3642 C   0  0  0  0  0  0  0  0  0  0  0  0
   -0.7853  -52.8688  -29.3448 C   0  0  0  0  0  0  0  0  0  0  0  0
    0.5056  -52.8916  -29.0039 N   0  0  0  0  0  0  0  0  0  0  0  0
    0.9565  -52.5812  -27.7469 C   0  0  0  0  0  0  0  0  0  0  0  0
    0.1048  -52.2206  -26.7369 C   0  0  0  0  0  0  0  0  0  0  0  0
   -1.1234  -52.7230  -21.5727 C   0  0  0  0  0  0  0  0  0  0  0  0
   -0.7851  -54.1764  -21.3152 C   0  0  0  0  0  0  0  0  0  0  0  0
    0.2275  -54.4492  -20.3795 N   0  0  0  0  0  0  0  0  0  0  0  0
   -1.3750  -55.0900  -21.9035 O   0  0  0  0  0  0  0  0  0  0  0  0
    1.2053  -54.0416  -20.4372 H   0  0  0  0  0  0  0  0  0  0  0  0
    0.0898  -55.0872  -19.5397 H   0  0  0  0  0  0  0  0  0  0  0  0
 24 25  1  0  0  0
 25 26  2  0  0  0
 26 27  1  0  0  0
 27 28  2  0  0  0
 28 29  1  0  0  0
 29 30  2  0  0  0
 30 20  1  0  0  0
 20 21  1  0  0  0
 21 22  2  0  0  0
 21  1  1  0  0  0
  1  2  2  0  0  0
  2  3  1  0  0  0
  3  6  1  0  0  0
  6  7  2  0  0  0
  7  8  1  0  0  0
  8  9  2  0  0  0
  9 10  1  0  0  0
 10 11  2  0  0  0
 11 12  1  0  0  0
  3  4  1  0  0  0
  4 13  1  0  0  0
 13 14  2  0  0  0
 14 15  1  0  0  0
 15 16  2  0  0  0
 16 17  1  0  0  0
 16 18  1  0  0  0
 18 19  2  0  0  0
  4  5  2  0  0  0
  5 31  1  0  0  0
 31 32  1  0  0  0
 32 33  1  0  0  0
 32 34  2  0  0  0
 30 25  1  0  0  0
  5  1  1  0  0  0
 11  6  1  0  0  0
 19 13  1  0  0  0
 20 23  1  0  0  0
 33 35  1  0  0  0
 33 36  1  0  0  0
M  END
> <minimizedAffinity>
-9.03648

> <CNNscore>
0.6437816620

> <CNNaffinity>
7.5527181625

> <CNN_VS>
4.8623013496

> <CNNaffinity_variance>
0.2250307500

$$$$
[H]c1nc([H])c(N([H])C(=O)c2nn(-c3c([H])c([H])c([H])c([H])c3Cl)c(-c3c([H])c([H])c(Cl)c([H])c3[H])c2C([H])([H])C(=O)N([H])[H])c(C([H])([H])[H])c1[H]


 36 39  0  0  0  0  0  0  0  0999 V2000
    1.1322  -52.1418  -21.0018 C   0  0  0  0  0  0  0  0  0  0  0  0
    2.3688  -51.7696  -21.3664 N   0  0  0  0  0  0  0  0  0  0  0  0
    2.4814  -51.7010  -22.6988 N   0  0  0  0  0  0  0  0  0  0  0  0
    1.2840  -52.0366  -23.2727 C   0  0  0  0  0  0  0  0  0  0  0  0
    0.4506  -52.3062  -22.2074 C   0  0  0  0  0  0  0  0  0  0  0  0
    3.7159  -51.3589  -23.2927 C   0  0  0  0  0  0  0  0  0  0  0  0
    4.6484  -52.3344  -23.5577 C   0  0  0  0  0  0  0  0  0  0  0  0
    5.8891  -52.0130  -24.1211 C   0  0  0  0  0  0  0  0  0  0  0  0
    6.2035  -50.6993  -24.4243 C   0  0  0  0  0  0  0  0  0  0  0  0
    5.2694  -49.7287  -24.1580 C   0  0  0  0  0  0  0  0  0  0  0  0
    4.0505  -50.0444  -23.6044 C   0  0  0  0  0  0  0  0  0  0  0  0
    2.8511  -48.8186  -23.2600 Cl  0  0  0  0  0  0  0  0  0  0  0  0
    1.0638  -52.2176  -24.6989 C   0  0  0  0  0  0  0  0  0  0  0  0
    1.6767  -53.1678  -25.4756 C   0  0  0  0  0  0  0  0  0  0  0  0
    1.3819  -53.4079  -26.8117 C   0  0  0  0  0  0  0  0  0  0  0  0
    0.4143  -52.6553  -27.4269 C   0  0  0  0  0  0  0  0  0  0  0  0
    0.0621  -52.9768  -29.1082 Cl  0  0  0  0  0  0  0  0  0  0  0  0
   -0.2266  -51.6968  -26.7069 C   0  0  0  0  0  0  0  0  0  0  0  0
    0.0828  -51.4704  -25.3614 C   0  0  0  0  0  0  0  0  0  0  0  0
    0.3314  -51.1780  -18.8797 N   0  0  0  0  0  0  0  0  0  0  0  0
    0.6492  -52.3285  -19.6310 C   0  0  0  0  0  0  0  0  0  0  0  0
    0.5281  -53.4575  -19.1601 O   0  0  0  0  0  0  0  0  0  0  0  0
    0.4801  -50.2511  -19.4076 H   0  0  0  0  0  0  0  0  0  0  0  0
    1.3870  -49.1630  -17.2855 C   0  0  0  0  0  0  0  0  0  0  0  0
    0.3673  -50.0764  -16.7392 C   0  0  0  0  0  0  0  0  0  0  0  0
   -0.0595  -49.9226  -15.4355 C   0  0  0  0  0  0  0  0  0  0  0  0
   -1.0039  -50.7550  -14.8884 C   0  0  0  0  0  0  0  0  0  0  0  0
   -1.4871  -51.7173  -15.6781 N   0  0  0  0  0  0  0  0  0  0  0  0
   -1.0846  -51.8968  -16.9764 C   0  0  0  0  0  0  0  0  0  0  0  0
   -0.1459  -51.0919  -17.5649 C   0  0  0  0  0  0  0  0  0  0  0  0
   -1.0084  -52.6365  -22.2381 C   0  0  0  0  0  0  0  0  0  0  0  0
   -1.0991  -54.1474  -22.2858 C   0  0  0  0  0  0  0  0  0  0  0  0
   -0.9546  -54.7651  -23.5398 N   0  0  0  0  0  0  0  0  0  0  0  0
   -1.2927  -54.8145  -21.2629 O   0  0  0  0  0  0  0  0  0  0  0  0
   -1.5450  -54.5200  -24.3865 H   0  0  0  0  0  0  0  0  0  0  0  0
   -0.2398  -55.5279  -23.7359 H   0  0  0  0  0  0  0  0  0  0  0  0
 24 25  1  0  0  0
 25 26  2  0  0  0
 26 27  1  0  0  0
 27 28  2  0  0  0
 28 29  1  0  0  0
 29 30  2  0  0  0
 30 20  1  0  0  0
 20 21  1  0  0  0
 21 22  2  0  0  0
 21  1  1  0  0  0
  1  2  2  0  0  0
  2  3  1  0  0  0
  3  6  1  0  0  0
  6  7  2  0  0  0
  7  8  1  0  0  0
  8  9  2  0  0  0
  9 10  1  0  0  0
 10 11  2  0  0  0
 11 12  1  0  0  0
  3  4  1  0  0  0
  4 13  1  0  0  0
 13 14  2  0  0  0
 14 15  1  0  0  0
 15 16  2  0  0  0
 16 17  1  0  0  0
 16 18  1  0  0  0
 18 19  2  0  0  0
  4  5  2  0  0  0
  5 31  1  0  0  0
 31 32  1  0  0  0
 32 33  1  0  0  0
 32 34  2  0  0  0
 30 25  1  0  0  0
  5  1  1  0  0  0
 11  6  1  0  0  0
 19 13  1  0  0  0
 20 23  1  0  0  0
 33 35  1  0  0  0
 33 36  1  0  0  0
M  END
> <minimizedAffinity>
-8.42992

> <CNNscore>
0.4595254660

> <CNNaffinity>
7.2827630043

> <CNN_VS>
3.3466150761

> <CNNaffinity_variance>
0.2835143209

$$$$
[H]c1nc([H])c(N([H])C(=O)c2nn(-c3c([H])c([H])c([H])c([H])c3Cl)c(-c3c([H])c([H])c(Cl)c([H])c3[H])c2C([H])([H])C(=O)N([H])[H])c(C([H])([H])[H])c1[H]


 36 39  0  0  0  0  0  0  0  0999 V2000
    1.5800  -51.2091  -20.6435 C   0  0  0  0  0  0  0  0  0  0  0  0
    2.5284  -50.5846  -21.3584 N   0  0  0  0  0  0  0  0  0  0  0  0
    2.3363  -50.7551  -22.6723 N   0  0  0  0  0  0  0  0  0  0  0  0
    1.2192  -51.5221  -22.8712 C   0  0  0  0  0  0  0  0  0  0  0  0
    0.7546  -51.7965  -21.6021 C   0  0  0  0  0  0  0  0  0  0  0  0
    3.2453  -50.2053  -23.6025 C   0  0  0  0  0  0  0  0  0  0  0  0
    2.9847  -48.9870  -24.1849 C   0  0  0  0  0  0  0  0  0  0  0  0
    3.8593  -48.4368  -25.1297 C   0  0  0  0  0  0  0  0  0  0  0  0
    5.0102  -49.1122  -25.4983 C   0  0  0  0  0  0  0  0  0  0  0  0
    5.2662  -50.3282  -24.9141 C   0  0  0  0  0  0  0  0  0  0  0  0
    4.4070  -50.8689  -23.9860 C   0  0  0  0  0  0  0  0  0  0  0  0
    4.7205  -52.4166  -23.2337 Cl  0  0  0  0  0  0  0  0  0  0  0  0
    0.7804  -52.0395  -24.1578 C   0  0  0  0  0  0  0  0  0  0  0  0
   -0.1644  -51.4531  -24.9612 C   0  0  0  0  0  0  0  0  0  0  0  0
   -0.5000  -51.8903  -26.2362 C   0  0  0  0  0  0  0  0  0  0  0  0
    0.1406  -52.9862  -26.7558 C   0  0  0  0  0  0  0  0  0  0  0  0
   -0.2999  -53.5161  -28.3618 Cl  0  0  0  0  0  0  0  0  0  0  0  0
    1.0860  -53.6098  -26.0041 C   0  0  0  0  0  0  0  0  0  0  0  0
    1.4120  -53.1540  -24.7223 C   0  0  0  0  0  0  0  0  0  0  0  0
    0.3145  -50.7083  -18.5889 N   0  0  0  0  0  0  0  0  0  0  0  0
    1.4754  -51.2458  -19.1823 C   0  0  0  0  0  0  0  0  0  0  0  0
    2.3776  -51.7329  -18.5041 O   0  0  0  0  0  0  0  0  0  0  0  0
   -0.3991  -50.3143  -19.2928 H   0  0  0  0  0  0  0  0  0  0  0  0
   -1.2598  -52.7507  -17.5564 C   0  0  0  0  0  0  0  0  0  0  0  0
   -0.8112  -51.6526  -16.6816 C   0  0  0  0  0  0  0  0  0  0  0  0
   -1.1755  -51.6474  -15.3501 C   0  0  0  0  0  0  0  0  0  0  0  0
   -0.7817  -50.6409  -14.5040 C   0  0  0  0  0  0  0  0  0  0  0  0
   -0.0313  -49.6707  -15.0320 N   0  0  0  0  0  0  0  0  0  0  0  0
    0.3476  -49.6464  -16.3494 C   0  0  0  0  0  0  0  0  0  0  0  0
   -0.0208  -50.6278  -17.2306 C   0  0  0  0  0  0  0  0  0  0  0  0
   -0.4943  -52.5235  -21.2139 C   0  0  0  0  0  0  0  0  0  0  0  0
   -0.1440  -53.9968  -21.2156 C   0  0  0  0  0  0  0  0  0  0  0  0
    0.5266  -54.5038  -20.0894 N   0  0  0  0  0  0  0  0  0  0  0  0
   -0.4353  -54.7279  -22.1692 O   0  0  0  0  0  0  0  0  0  0  0  0
    1.4342  -54.1009  -19.7159 H   0  0  0  0  0  0  0  0  0  0  0  0
    0.1739  -55.3330  -19.5243 H   0  0  0  0  0  0  0  0  0  0  0  0
 24 25  1  0  0  0
 25 26  2  0  0  0
 26 27  1  0  0  0
 27 28  2  0  0  0
 28 29  1  0  0  0
 29 30  2  0  0  0
 30 20  1  0  0  0
 20 21  1  0  0  0
 21 22  2  0  0  0
 21  1  1  0  0  0
  1  2  2  0  0  0
  2  3  1  0  0  0
  3  6  1  0  0  0
  6  7  2  0  0  0
  7  8  1  0  0  0
  8  9  2  0  0  0
  9 10  1  0  0  0
 10 11  2  0  0  0
 11 12  1  0  0  0
  3  4  1  0  0  0
  4 13  1  0  0  0
 13 14  2  0  0  0
 14 15  1  0  0  0
 15 16  2  0  0  0
 16 17  1  0  0  0
 16 18  1  0  0  0
 18 19  2  0  0  0
  4  5  2  0  0  0
  5 31  1  0  0  0
 31 32  1  0  0  0
 32 33  1  0  0  0
 32 34  2  0  0  0
 30 25  1  0  0  0
  5  1  1  0  0  0
 11  6  1  0  0  0
 19 13  1  0  0  0
 20 23  1  0  0  0
 33 35  1  0  0  0
 33 36  1  0  0  0
M  END
> <minimizedAffinity>
-8.05602

> <CNNscore>
0.4442554712

> <CNNaffinity>
7.1721506119

> <CNN_VS>
3.1862671375

> <CNNaffinity_variance>
0.3696506619

$$$$
[H]c1nc([H])c(N([H])C(=O)c2nn(-c3c([H])c([H])c([H])c([H])c3Cl)c(-c3c([H])c([H])c(Cl)c([H])c3[H])c2C([H])([H])C(=O)N([H])[H])c(C([H])([H])[H])c1[H]


 36 39  0  0  0  0  0  0  0  0999 V2000
    0.9068  -52.0353  -23.2212 C   0  0  0  0  0  0  0  0  0  0  0  0
    2.1595  -51.5758  -23.3638 N   0  0  0  0  0  0  0  0  0  0  0  0
    2.6438  -51.1196  -22.2019 N   0  0  0  0  0  0  0  0  0  0  0  0
    1.6951  -51.2690  -21.2256 C   0  0  0  0  0  0  0  0  0  0  0  0
    0.6192  -51.8426  -21.8702 C   0  0  0  0  0  0  0  0  0  0  0  0
    3.9385  -50.5595  -22.1406 C   0  0  0  0  0  0  0  0  0  0  0  0
    5.0288  -51.3649  -21.9086 C   0  0  0  0  0  0  0  0  0  0  0  0
    6.3178  -50.8261  -21.8170 C   0  0  0  0  0  0  0  0  0  0  0  0
    6.5213  -49.4641  -21.9590 C   0  0  0  0  0  0  0  0  0  0  0  0
    5.4297  -48.6639  -22.1906 C   0  0  0  0  0  0  0  0  0  0  0  0
    4.1634  -49.1931  -22.2804 C   0  0  0  0  0  0  0  0  0  0  0  0
    2.7639  -48.1860  -22.5751 Cl  0  0  0  0  0  0  0  0  0  0  0  0
    1.8041  -50.7530  -19.8701 C   0  0  0  0  0  0  0  0  0  0  0  0
    0.9923  -49.7899  -19.3268 C   0  0  0  0  0  0  0  0  0  0  0  0
    1.0297  -49.3801  -18.0000 C   0  0  0  0  0  0  0  0  0  0  0  0
    1.9345  -49.9602  -17.1480 C   0  0  0  0  0  0  0  0  0  0  0  0
    1.9617  -49.4270  -15.4839 Cl  0  0  0  0  0  0  0  0  0  0  0  0
    2.7668  -50.9204  -17.6310 C   0  0  0  0  0  0  0  0  0  0  0  0
    2.7134  -51.3215  -18.9702 C   0  0  0  0  0  0  0  0  0  0  0  0
   -0.2300  -51.7895  -25.3939 N   0  0  0  0  0  0  0  0  0  0  0  0
    0.0624  -52.5998  -24.2773 C   0  0  0  0  0  0  0  0  0  0  0  0
   -0.3723  -53.7459  -24.1832 O   0  0  0  0  0  0  0  0  0  0  0  0
    0.2121  -50.8082  -25.3550 H   0  0  0  0  0  0  0  0  0  0  0  0
    1.1383  -52.5500  -27.6886 C   0  0  0  0  0  0  0  0  0  0  0  0
   -0.3344  -52.4892  -27.6953 C   0  0  0  0  0  0  0  0  0  0  0  0
   -1.0264  -52.8140  -28.8447 C   0  0  0  0  0  0  0  0  0  0  0  0
   -2.3973  -52.7659  -28.8928 C   0  0  0  0  0  0  0  0  0  0  0  0
   -3.0253  -52.3905  -27.7757 N   0  0  0  0  0  0  0  0  0  0  0  0
   -2.3680  -52.0618  -26.6183 C   0  0  0  0  0  0  0  0  0  0  0  0
   -1.0022  -52.0950  -26.5227 C   0  0  0  0  0  0  0  0  0  0  0  0
   -0.6695  -52.3140  -21.2737 C   0  0  0  0  0  0  0  0  0  0  0  0
   -0.3355  -53.5537  -20.4707 C   0  0  0  0  0  0  0  0  0  0  0  0
   -0.4164  -53.4593  -19.0708 N   0  0  0  0  0  0  0  0  0  0  0  0
   -0.0042  -54.6095  -21.0222 O   0  0  0  0  0  0  0  0  0  0  0  0
    0.0997  -52.7282  -18.5010 H   0  0  0  0  0  0  0  0  0  0  0  0
   -1.0031  -54.1160  -18.4744 H   0  0  0  0  0  0  0  0  0  0  0  0
 24 25  1  0  0  0
 25 26  2  0  0  0
 26 27  1  0  0  0
 27 28  2  0  0  0
 28 29  1  0  0  0
 29 30  2  0  0  0
 30 20  1  0  0  0
 20 21  1  0  0  0
 21 22  2  0  0  0
 21  1  1  0  0  0
  1  2  2  0  0  0
  2  3  1  0  0  0
  3  6  1  0  0  0
  6  7  2  0  0  0
  7  8  1  0  0  0
  8  9  2  0  0  0
  9 10  1  0  0  0
 10 11  2  0  0  0
 11 12  1  0  0  0
  3  4  1  0  0  0
  4 13  1  0  0  0
 13 14  2  0  0  0
 14 15  1  0  0  0
 15 16  2  0  0  0
 16 17  1  0  0  0
 16 18  1  0  0  0
 18 19  2  0  0  0
  4  5  2  0  0  0
  5 31  1  0  0  0
 31 32  1  0  0  0
 32 33  1  0  0  0
 32 34  2  0  0  0
 30 25  1  0  0  0
  5  1  1  0  0  0
 11  6  1  0  0  0
 19 13  1  0  0  0
 20 23  1  0  0  0
 33 35  1  0  0  0
 33 36  1  0  0  0
M  END
> <minimizedAffinity>
-8.64940

> <CNNscore>
0.3723332882

> <CNNaffinity>
7.2477493286

> <CNN_VS>
2.6985783577

> <CNNaffinity_variance>
0.1065124497

$$$$
[H]c1nc([H])c(N([H])C(=O)c2nn(-c3c([H])c([H])c([H])c([H])c3Cl)c(-c3c([H])c([H])c(Cl)c([H])c3[H])c2C([H])([H])C(=O)N([H])[H])c(C([H])([H])[H])c1[H]


 36 39  0  0  0  0  0  0  0  0999 V2000
    1.3643  -52.1912  -23.7103 C   0  0  0  0  0  0  0  0  0  0  0  0
    2.6086  -51.6896  -23.6827 N   0  0  0  0  0  0  0  0  0  0  0  0
    2.9057  -51.1961  -22.4741 N   0  0  0  0  0  0  0  0  0  0  0  0
    1.8321  -51.3622  -21.6403 C   0  0  0  0  0  0  0  0  0  0  0  0
    0.8794  -51.9853  -22.4189 C   0  0  0  0  0  0  0  0  0  0  0  0
    4.1589  -50.5888  -22.2410 C   0  0  0  0  0  0  0  0  0  0  0  0
    5.2182  -51.3422  -21.7917 C   0  0  0  0  0  0  0  0  0  0  0  0
    6.4615  -50.7548  -21.5285 C   0  0  0  0  0  0  0  0  0  0  0  0
    6.6502  -49.3962  -21.7164 C   0  0  0  0  0  0  0  0  0  0  0  0
    5.5898  -48.6481  -22.1651 C   0  0  0  0  0  0  0  0  0  0  0  0
    4.3683  -49.2251  -22.4236 C   0  0  0  0  0  0  0  0  0  0  0  0
    3.0090  -48.2845  -22.9956 Cl  0  0  0  0  0  0  0  0  0  0  0  0
    1.7282  -50.8190  -20.2951 C   0  0  0  0  0  0  0  0  0  0  0  0
    2.2236  -51.4171  -19.1643 C   0  0  0  0  0  0  0  0  0  0  0  0
    2.2190  -50.8433  -17.8992 C   0  0  0  0  0  0  0  0  0  0  0  0
    1.6854  -49.5902  -17.7370 C   0  0  0  0  0  0  0  0  0  0  0  0
    1.6916  -48.8907  -16.1356 Cl  0  0  0  0  0  0  0  0  0  0  0  0
    1.1777  -48.9489  -18.8227 C   0  0  0  0  0  0  0  0  0  0  0  0
    1.1925  -49.5421  -20.0896 C   0  0  0  0  0  0  0  0  0  0  0  0
    0.4639  -51.9979  -25.9962 N   0  0  0  0  0  0  0  0  0  0  0  0
    0.6994  -52.8042  -24.8633 C   0  0  0  0  0  0  0  0  0  0  0  0
    0.3616  -53.9858  -24.8337 O   0  0  0  0  0  0  0  0  0  0  0  0
    0.8087  -50.9827  -25.8948 H   0  0  0  0  0  0  0  0  0  0  0  0
   -2.3060  -51.8248  -26.1117 C   0  0  0  0  0  0  0  0  0  0  0  0
   -1.5452  -52.2595  -27.2969 C   0  0  0  0  0  0  0  0  0  0  0  0
   -2.2160  -52.5765  -28.4610 C   0  0  0  0  0  0  0  0  0  0  0  0
   -1.5444  -52.9892  -29.5846 C   0  0  0  0  0  0  0  0  0  0  0  0
   -0.2144  -53.0683  -29.4951 N   0  0  0  0  0  0  0  0  0  0  0  0
    0.4816  -52.7608  -28.3546 C   0  0  0  0  0  0  0  0  0  0  0  0
   -0.1446  -52.3450  -27.2099 C   0  0  0  0  0  0  0  0  0  0  0  0
   -0.4653  -52.4921  -22.0023 C   0  0  0  0  0  0  0  0  0  0  0  0
   -0.2486  -53.9051  -21.5024 C   0  0  0  0  0  0  0  0  0  0  0  0
   -0.7608  -54.9541  -22.2850 N   0  0  0  0  0  0  0  0  0  0  0  0
    0.3552  -54.1305  -20.4473 O   0  0  0  0  0  0  0  0  0  0  0  0
   -1.7760  -55.0206  -22.5856 H   0  0  0  0  0  0  0  0  0  0  0  0
   -0.1673  -55.7637  -22.6364 H   0  0  0  0  0  0  0  0  0  0  0  0
 24 25  1  0  0  0
 25 26  2  0  0  0
 26 27  1  0  0  0
 27 28  2  0  0  0
 28 29  1  0  0  0
 29 30  2  0  0  0
 30 20  1  0  0  0
 20 21  1  0  0  0
 21 22  2  0  0  0
 21  1  1  0  0  0
  1  2  2  0  0  0
  2  3  1  0  0  0
  3  6  1  0  0  0
  6  7  2  0  0  0
  7  8  1  0  0  0
  8  9  2  0  0  0
  9 10  1  0  0  0
 10 11  2  0  0  0
 11 12  1  0  0  0
  3  4  1  0  0  0
  4 13  1  0  0  0
 13 14  2  0  0  0
 14 15  1  0  0  0
 15 16  2  0  0  0
 16 17  1  0  0  0
 16 18  1  0  0  0
 18 19  2  0  0  0
  4  5  2  0  0  0
  5 31  1  0  0  0
 31 32  1  0  0  0
 32 33  1  0  0  0
 32 34  2  0  0  0
 30 25  1  0  0  0
  5  1  1  0  0  0
 11  6  1  0  0  0
 19 13  1  0  0  0
 20 23  1  0  0  0
 33 35  1  0  0  0
 33 36  1  0  0  0
M  END
> <minimizedAffinity>
-7.86828

> <CNNscore>
0.3493753374

> <CNNaffinity>
7.2256951332

> <CNN_VS>
2.5244796276

> <CNNaffinity_variance>
0.2981127203

$$$$
[H]c1nc([H])c(N([H])C(=O)c2nn(-c3c([H])c([H])c([H])c([H])c3Cl)c(-c3c([H])c([H])c(Cl)c([H])c3[H])c2C([H])([H])C(=O)N([H])[H])c(C([H])([H])[H])c1[H]


 36 39  0  0  0  0  0  0  0  0999 V2000
    2.0927  -50.7126  -22.4927 C   0  0  0  0  0  0  0  0  0  0  0  0
    3.2572  -50.1374  -22.1555 N   0  0  0  0  0  0  0  0  0  0  0  0
    3.3332  -49.9345  -20.8343 N   0  0  0  0  0  0  0  0  0  0  0  0
    2.1841  -50.3841  -20.2399 C   0  0  0  0  0  0  0  0  0  0  0  0
    1.4203  -50.8691  -21.2808 C   0  0  0  0  0  0  0  0  0  0  0  0
    4.4672  -49.3071  -20.2739 C   0  0  0  0  0  0  0  0  0  0  0  0
    4.3183  -48.1961  -19.4771 C   0  0  0  0  0  0  0  0  0  0  0  0
    5.4312  -47.5430  -18.9338 C   0  0  0  0  0  0  0  0  0  0  0  0
    6.7108  -48.0054  -19.1896 C   0  0  0  0  0  0  0  0  0  0  0  0
    6.8546  -49.1150  -19.9857 C   0  0  0  0  0  0  0  0  0  0  0  0
    5.7613  -49.7566  -20.5195 C   0  0  0  0  0  0  0  0  0  0  0  0
    5.9294  -51.1708  -21.5349 Cl  0  0  0  0  0  0  0  0  0  0  0  0
    1.8415  -50.1982  -18.8387 C   0  0  0  0  0  0  0  0  0  0  0  0
    0.8047  -49.4274  -18.3774 C   0  0  0  0  0  0  0  0  0  0  0  0
    0.4142  -49.3409  -17.0471 C   0  0  0  0  0  0  0  0  0  0  0  0
    1.0967  -50.0651  -16.1032 C   0  0  0  0  0  0  0  0  0  0  0  0
    0.5859  -49.9389  -14.4367 Cl  0  0  0  0  0  0  0  0  0  0  0  0
    2.1353  -50.8464  -16.5016 C   0  0  0  0  0  0  0  0  0  0  0  0
    2.5132  -50.9221  -17.8465 C   0  0  0  0  0  0  0  0  0  0  0  0
    1.9030  -52.3903  -24.2879 N   0  0  0  0  0  0  0  0  0  0  0  0
    1.6608  -51.0732  -23.8457 C   0  0  0  0  0  0  0  0  0  0  0  0
    1.1049  -50.2456  -24.5649 O   0  0  0  0  0  0  0  0  0  0  0  0
    2.3954  -53.0159  -23.5625 H   0  0  0  0  0  0  0  0  0  0  0  0
   -0.5383  -53.7022  -24.4740 C   0  0  0  0  0  0  0  0  0  0  0  0
    0.3548  -53.6387  -25.6448 C   0  0  0  0  0  0  0  0  0  0  0  0
   -0.0300  -54.2313  -26.8306 C   0  0  0  0  0  0  0  0  0  0  0  0
    0.7748  -54.1979  -27.9419 C   0  0  0  0  0  0  0  0  0  0  0  0
    1.9444  -53.5655  -27.8185 N   0  0  0  0  0  0  0  0  0  0  0  0
    2.3560  -52.9669  -26.6557 C   0  0  0  0  0  0  0  0  0  0  0  0
    1.5877  -52.9743  -25.5221 C   0  0  0  0  0  0  0  0  0  0  0  0
    0.0985  -51.5665  -21.2083 C   0  0  0  0  0  0  0  0  0  0  0  0
    0.3927  -52.9865  -20.7724 C   0  0  0  0  0  0  0  0  0  0  0  0
    0.0870  -53.3324  -19.4450 N   0  0  0  0  0  0  0  0  0  0  0  0
    0.8828  -53.8120  -21.5515 O   0  0  0  0  0  0  0  0  0  0  0  0
    0.4525  -52.8031  -18.6013 H   0  0  0  0  0  0  0  0  0  0  0  0
   -0.5361  -54.1541  -19.1845 H   0  0  0  0  0  0  0  0  0  0  0  0
 24 25  1  0  0  0
 25 26  2  0  0  0
 26 27  1  0  0  0
 27 28  2  0  0  0
 28 29  1  0  0  0
 29 30  2  0  0  0
 30 20  1  0  0  0
 20 21  1  0  0  0
 21 22  2  0  0  0
 21  1  1  0  0  0
  1  2  2  0  0  0
  2  3  1  0  0  0
  3  6  1  0  0  0
  6  7  2  0  0  0
  7  8  1  0  0  0
  8  9  2  0  0  0
  9 10  1  0  0  0
 10 11  2  0  0  0
 11 12  1  0  0  0
  3  4  1  0  0  0
  4 13  1  0  0  0
 13 14  2  0  0  0
 14 15  1  0  0  0
 15 16  2  0  0  0
 16 17  1  0  0  0
 16 18  1  0  0  0
 18 19  2  0  0  0
  4  5  2  0  0  0
  5 31  1  0  0  0
 31 32  1  0  0  0
 32 33  1  0  0  0
 32 34  2  0  0  0
 30 25  1  0  0  0
  5  1  1  0  0  0
 11  6  1  0  0  0
 19 13  1  0  0  0
 20 23  1  0  0  0
 33 35  1  0  0  0
 33 36  1  0  0  0
M  END
> <minimizedAffinity>
-6.26846

> <CNNscore>
0.3271345794

> <CNNaffinity>
6.9421319962

> <CNN_VS>
2.2710113525

> <CNNaffinity_variance>
0.7040360570

$$$$
[H]c1nc([H])c(N([H])C(=O)c2nn(-c3c([H])c([H])c([H])c([H])c3Cl)c(-c3c([H])c([H])c(Cl)c([H])c3[H])c2C([H])([H])C(=O)N([H])[H])c(C([H])([H])[H])c1[H]


 36 39  0  0  0  0  0  0  0  0999 V2000
    1.3606  -51.8155  -23.3197 C   0  0  0  0  0  0  0  0  0  0  0  0
    2.0910  -50.6899  -23.3100 N   0  0  0  0  0  0  0  0  0  0  0  0
    2.3776  -50.3086  -22.0590 N   0  0  0  0  0  0  0  0  0  0  0  0
    1.8272  -51.1995  -21.1764 C   0  0  0  0  0  0  0  0  0  0  0  0
    1.1992  -52.1350  -21.9717 C   0  0  0  0  0  0  0  0  0  0  0  0
    3.1117  -49.1253  -21.8254 C   0  0  0  0  0  0  0  0  0  0  0  0
    2.4743  -47.9066  -21.8223 C   0  0  0  0  0  0  0  0  0  0  0  0
    3.1880  -46.7193  -21.6197 C   0  0  0  0  0  0  0  0  0  0  0  0
    4.5572  -46.7487  -21.4174 C   0  0  0  0  0  0  0  0  0  0  0  0
    5.1893  -47.9677  -21.4213 C   0  0  0  0  0  0  0  0  0  0  0  0
    4.4883  -49.1342  -21.6205 C   0  0  0  0  0  0  0  0  0  0  0  0
    5.2802  -50.6938  -21.6278 Cl  0  0  0  0  0  0  0  0  0  0  0  0
    1.8021  -51.0353  -19.7314 C   0  0  0  0  0  0  0  0  0  0  0  0
    2.8839  -51.1917  -18.9025 C   0  0  0  0  0  0  0  0  0  0  0  0
    2.8804  -50.9269  -17.5389 C   0  0  0  0  0  0  0  0  0  0  0  0
    1.7262  -50.4775  -16.9496 C   0  0  0  0  0  0  0  0  0  0  0  0
    1.7479  -50.1518  -15.2327 Cl  0  0  0  0  0  0  0  0  0  0  0  0
    0.6207  -50.3049  -17.7216 C   0  0  0  0  0  0  0  0  0  0  0  0
    0.6437  -50.5754  -19.0940 C   0  0  0  0  0  0  0  0  0  0  0  0
    0.6869  -51.7714  -25.6898 N   0  0  0  0  0  0  0  0  0  0  0  0
    0.8592  -52.5164  -24.5048 C   0  0  0  0  0  0  0  0  0  0  0  0
    0.6002  -53.7172  -24.4569 O   0  0  0  0  0  0  0  0  0  0  0  0
    0.9506  -50.7312  -25.5995 H   0  0  0  0  0  0  0  0  0  0  0  0
   -2.0626  -51.8077  -26.0840 C   0  0  0  0  0  0  0  0  0  0  0  0
   -1.1574  -52.2269  -27.1690 C   0  0  0  0  0  0  0  0  0  0  0  0
   -1.6834  -52.6339  -28.3787 C   0  0  0  0  0  0  0  0  0  0  0  0
   -0.8745  -53.0357  -29.4123 C   0  0  0  0  0  0  0  0  0  0  0  0
    0.4419  -53.0131  -29.1893 N   0  0  0  0  0  0  0  0  0  0  0  0
    0.9960  -52.6145  -28.0002 C   0  0  0  0  0  0  0  0  0  0  0  0
    0.2298  -52.2055  -26.9414 C   0  0  0  0  0  0  0  0  0  0  0  0
    0.5075  -53.3919  -21.5469 C   0  0  0  0  0  0  0  0  0  0  0  0
   -0.8876  -52.9841  -21.1220 C   0  0  0  0  0  0  0  0  0  0  0  0
   -1.4526  -53.6568  -20.0251 N   0  0  0  0  0  0  0  0  0  0  0  0
   -1.5082  -52.0942  -21.7150 O   0  0  0  0  0  0  0  0  0  0  0  0
   -1.5457  -54.7121  -19.9680 H   0  0  0  0  0  0  0  0  0  0  0  0
   -1.8312  -53.1572  -19.1658 H   0  0  0  0  0  0  0  0  0  0  0  0
 24 25  1  0  0  0
 25 26  2  0  0  0
 26 27  1  0  0  0
 27 28  2  0  0  0
 28 29  1  0  0  0
 29 30  2  0  0  0
 30 20  1  0  0  0
 20 21  1  0  0  0
 21 22  2  0  0  0
 21  1  1  0  0  0
  1  2  2  0  0  0
  2  3  1  0  0  0
  3  6  1  0  0  0
  6  7  2  0  0  0
  7  8  1  0  0  0
  8  9  2  0  0  0
  9 10  1  0  0  0
 10 11  2  0  0  0
 11 12  1  0  0  0
  3  4  1  0  0  0
  4 13  1  0  0  0
 13 14  2  0  0  0
 14 15  1  0  0  0
 15 16  2  0  0  0
 16 17  1  0  0  0
 16 18  1  0  0  0
 18 19  2  0  0  0
  4  5  2  0  0  0
  5 31  1  0  0  0
 31 32  1  0  0  0
 32 33  1  0  0  0
 32 34  2  0  0  0
 30 25  1  0  0  0
  5  1  1  0  0  0
 11  6  1  0  0  0
 19 13  1  0  0  0
 20 23  1  0  0  0
 33 35  1  0  0  0
 33 36  1  0  0  0
M  END
> <minimizedAffinity>
-8.10619

> <CNNscore>
0.2763010561

> <CNNaffinity>
7.0646042824

> <CNN_VS>
1.9519575834

> <CNNaffinity_variance>
0.2670666575

$$$$
[H]c1nc([H])c(N([H])C(=O)c2nn(-c3c([H])c([H])c([H])c([H])c3Cl)c(-c3c([H])c([H])c(Cl)c([H])c3[H])c2C([H])([H])C(=O)N([H])[H])c(C([H])([H])[H])c1[H]


 36 39  0  0  0  0  0  0  0  0999 V2000
    1.4154  -50.7259  -20.6465 C   0  0  0  0  0  0  0  0  0  0  0  0
    2.4453  -50.1346  -21.2713 N   0  0  0  0  0  0  0  0  0  0  0  0
    2.4398  -50.4093  -22.5816 N   0  0  0  0  0  0  0  0  0  0  0  0
    1.3718  -51.2163  -22.8711 C   0  0  0  0  0  0  0  0  0  0  0  0
    0.7393  -51.4046  -21.6601 C   0  0  0  0  0  0  0  0  0  0  0  0
    3.4615  -49.9098  -23.4185 C   0  0  0  0  0  0  0  0  0  0  0  0
    3.2871  -48.7201  -24.0861 C   0  0  0  0  0  0  0  0  0  0  0  0
    4.2764  -48.2208  -24.9417 C   0  0  0  0  0  0  0  0  0  0  0  0
    5.4564  -48.9188  -25.1338 C   0  0  0  0  0  0  0  0  0  0  0  0
    5.6261  -50.1061  -24.4652 C   0  0  0  0  0  0  0  0  0  0  0  0
    4.6542  -50.5968  -23.6247 C   0  0  0  0  0  0  0  0  0  0  0  0
    4.8568  -52.1075  -22.7666 Cl  0  0  0  0  0  0  0  0  0  0  0  0
    1.1229  -51.8406  -24.1609 C   0  0  0  0  0  0  0  0  0  0  0  0
    1.7890  -52.9373  -24.6462 C   0  0  0  0  0  0  0  0  0  0  0  0
    1.4736  -53.5953  -25.8282 C   0  0  0  0  0  0  0  0  0  0  0  0
    0.4271  -53.1377  -26.5876 C   0  0  0  0  0  0  0  0  0  0  0  0
    0.0506  -53.9830  -28.0701 Cl  0  0  0  0  0  0  0  0  0  0  0  0
   -0.2694  -52.0526  -26.1572 C   0  0  0  0  0  0  0  0  0  0  0  0
    0.0620  -51.4036  -24.9629 C   0  0  0  0  0  0  0  0  0  0  0  0
    2.1229  -50.2017  -18.3447 N   0  0  0  0  0  0  0  0  0  0  0  0
    1.1096  -50.6539  -19.2152 C   0  0  0  0  0  0  0  0  0  0  0  0
    0.0007  -50.9798  -18.7967 O   0  0  0  0  0  0  0  0  0  0  0  0
    3.0463  -49.9467  -18.8369 H   0  0  0  0  0  0  0  0  0  0  0  0
    3.0145  -47.7768  -17.3245 C   0  0  0  0  0  0  0  0  0  0  0  0
    2.5180  -48.8221  -16.4115 C   0  0  0  0  0  0  0  0  0  0  0  0
    2.4971  -48.5876  -15.0514 C   0  0  0  0  0  0  0  0  0  0  0  0
    2.0464  -49.5366  -14.1680 C   0  0  0  0  0  0  0  0  0  0  0  0
    1.6307  -50.6937  -14.6891 N   0  0  0  0  0  0  0  0  0  0  0  0
    1.6385  -50.9580  -16.0344 C   0  0  0  0  0  0  0  0  0  0  0  0
    2.0787  -50.0428  -16.9531 C   0  0  0  0  0  0  0  0  0  0  0  0
   -0.5413  -52.1303  -21.3910 C   0  0  0  0  0  0  0  0  0  0  0  0
   -0.1659  -53.5789  -21.1588 C   0  0  0  0  0  0  0  0  0  0  0  0
    0.1132  -53.9714  -19.8386 N   0  0  0  0  0  0  0  0  0  0  0  0
   -0.1064  -54.3874  -22.0924 O   0  0  0  0  0  0  0  0  0  0  0  0
    0.8356  -53.4951  -19.2247 H   0  0  0  0  0  0  0  0  0  0  0  0
   -0.3803  -54.7788  -19.3529 H   0  0  0  0  0  0  0  0  0  0  0  0
 24 25  1  0  0  0
 25 26  2  0  0  0
 26 27  1  0  0  0
 27 28  2  0  0  0
 28 29  1  0  0  0
 29 30  2  0  0  0
 30 20  1  0  0  0
 20 21  1  0  0  0
 21 22  2  0  0  0
 21  1  1  0  0  0
  1  2  2  0  0  0
  2  3  1  0  0  0
  3  6  1  0  0  0
  6  7  2  0  0  0
  7  8  1  0  0  0
  8  9  2  0  0  0
  9 10  1  0  0  0
 10 11  2  0  0  0
 11 12  1  0  0  0
  3  4  1  0  0  0
  4 13  1  0  0  0
 13 14  2  0  0  0
 14 15  1  0  0  0
 15 16  2  0  0  0
 16 17  1  0  0  0
 16 18  1  0  0  0
 18 19  2  0  0  0
  4  5  2  0  0  0
  5 31  1  0  0  0
 31 32  1  0  0  0
 32 33  1  0  0  0
 32 34  2  0  0  0
 30 25  1  0  0  0
  5  1  1  0  0  0
 11  6  1  0  0  0
 19 13  1  0  0  0
 20 23  1  0  0  0
 33 35  1  0  0  0
 33 36  1  0  0  0
M  END
> <minimizedAffinity>
-7.29736

> <CNNscore>
0.2717159390

> <CNNaffinity>
6.8267898560

> <CNN_VS>
1.8549475670

> <CNNaffinity_variance>
0.7043428421

$$$$
[H]c1nc([H])c(N([H])C(=O)c2nn(-c3c([H])c([H])c([H])c([H])c3Cl)c(-c3c([H])c([H])c(Cl)c([H])c3[H])c2C([H])([H])C(=O)N([H])[H])c(C([H])([H])[H])c1[H]


 36 39  0  0  0  0  0  0  0  0999 V2000
    0.3563  -51.9045  -23.5559 C   0  0  0  0  0  0  0  0  0  0  0  0
   -0.0190  -51.7920  -22.2725 N   0  0  0  0  0  0  0  0  0  0  0  0
    0.8984  -51.1314  -21.5552 N   0  0  0  0  0  0  0  0  0  0  0  0
    1.9407  -50.7762  -22.3695 C   0  0  0  0  0  0  0  0  0  0  0  0
    1.5916  -51.2597  -23.6131 C   0  0  0  0  0  0  0  0  0  0  0  0
    0.7122  -50.9333  -20.1697 C   0  0  0  0  0  0  0  0  0  0  0  0
    0.9012  -49.6873  -19.6189 C   0  0  0  0  0  0  0  0  0  0  0  0
    0.7482  -49.4754  -18.2434 C   0  0  0  0  0  0  0  0  0  0  0  0
    0.4017  -50.5219  -17.4059 C   0  0  0  0  0  0  0  0  0  0  0  0
    0.2141  -51.7640  -17.9602 C   0  0  0  0  0  0  0  0  0  0  0  0
    0.3644  -51.9724  -19.3115 C   0  0  0  0  0  0  0  0  0  0  0  0
    0.1285  -53.5490  -20.0314 Cl  0  0  0  0  0  0  0  0  0  0  0  0
    3.1866  -50.1773  -21.9172 C   0  0  0  0  0  0  0  0  0  0  0  0
    3.4520  -48.8316  -21.8988 C   0  0  0  0  0  0  0  0  0  0  0  0
    4.5990  -48.2587  -21.3643 C   0  0  0  0  0  0  0  0  0  0  0  0
    5.5544  -49.0717  -20.8098 C   0  0  0  0  0  0  0  0  0  0  0  0
    6.9882  -48.3265  -20.1442 Cl  0  0  0  0  0  0  0  0  0  0  0  0
    5.3467  -50.4151  -20.8009 C   0  0  0  0  0  0  0  0  0  0  0  0
    4.1842  -50.9739  -21.3427 C   0  0  0  0  0  0  0  0  0  0  0  0
   -0.6078  -51.8584  -25.8235 N   0  0  0  0  0  0  0  0  0  0  0  0
   -0.3921  -52.5704  -24.6253 C   0  0  0  0  0  0  0  0  0  0  0  0
   -0.8144  -53.7148  -24.4726 O   0  0  0  0  0  0  0  0  0  0  0  0
   -0.1862  -50.8674  -25.8300 H   0  0  0  0  0  0  0  0  0  0  0  0
    0.9548  -52.6547  -27.9776 C   0  0  0  0  0  0  0  0  0  0  0  0
   -0.5151  -52.6847  -28.0829 C   0  0  0  0  0  0  0  0  0  0  0  0
   -1.1075  -53.1120  -29.2543 C   0  0  0  0  0  0  0  0  0  0  0  0
   -2.4724  -53.1506  -29.3936 C   0  0  0  0  0  0  0  0  0  0  0  0
   -3.1955  -52.7555  -28.3428 N   0  0  0  0  0  0  0  0  0  0  0  0
   -2.6384  -52.3260  -27.1659 C   0  0  0  0  0  0  0  0  0  0  0  0
   -1.2827  -52.2703  -26.9805 C   0  0  0  0  0  0  0  0  0  0  0  0
    2.3178  -51.0820  -24.9092 C   0  0  0  0  0  0  0  0  0  0  0  0
    3.3016  -52.2294  -25.0036 C   0  0  0  0  0  0  0  0  0  0  0  0
    4.6701  -51.9147  -24.9482 N   0  0  0  0  0  0  0  0  0  0  0  0
    2.9189  -53.3988  -25.1248 O   0  0  0  0  0  0  0  0  0  0  0  0
    5.1391  -51.2183  -25.5968 H   0  0  0  0  0  0  0  0  0  0  0  0
    5.3419  -52.3523  -24.2492 H   0  0  0  0  0  0  0  0  0  0  0  0
 24 25  1  0  0  0
 25 26  2  0  0  0
 26 27  1  0  0  0
 27 28  2  0  0  0
 28 29  1  0  0  0
 29 30  2  0  0  0
 30 20  1  0  0  0
 20 21  1  0  0  0
 21 22  2  0  0  0
 21  1  1  0  0  0
  1  2  2  0  0  0
  2  3  1  0  0  0
  3  6  1  0  0  0
  6  7  2  0  0  0
  7  8  1  0  0  0
  8  9  2  0  0  0
  9 10  1  0  0  0
 10 11  2  0  0  0
 11 12  1  0  0  0
  3  4  1  0  0  0
  4 13  1  0  0  0
 13 14  2  0  0  0
 14 15  1  0  0  0
 15 16  2  0  0  0
 16 17  1  0  0  0
 16 18  1  0  0  0
 18 19  2  0  0  0
  4  5  2  0  0  0
  5 31  1  0  0  0
 31 32  1  0  0  0
 32 33  1  0  0  0
 32 34  2  0  0  0
 30 25  1  0  0  0
  5  1  1  0  0  0
 11  6  1  0  0  0
 19 13  1  0  0  0
 20 23  1  0  0  0
 33 35  1  0  0  0
 33 36  1  0  0  0
M  END
> <minimizedAffinity>
-8.13434

> <CNNscore>
0.2655749619

> <CNNaffinity>
7.0101547241

> <CNN_VS>
1.8617215157

> <CNNaffinity_variance>
0.1361669749

$$$$
[H]OC([H])([H])C([H])([H])n1c(C2([H])C([H])([H])C([H])([H])N(c3nc([H])nc(N([H])[H])c3C#N)C([H])([H])C2([H])[H])nc(-c2c([H])c([H])c(F)c(C([H])([H])[H])c2[H])c1[H]


 34 37  0  0  0  0  0  0  0  0999 V2000
    3.3102  -49.0626  -25.5018 C   0  0  0  0  0  0  0  0  0  0  0  0
    4.0148  -50.2344  -25.6469 C   0  0  0  0  0  0  0  0  0  0  0  0
    3.7201  -51.0132  -24.5580 N   0  0  0  0  0  0  0  0  0  0  0  0
    2.8684  -50.3536  -23.7690 C   0  0  0  0  0  0  0  0  0  0  0  0
    2.6337  -49.1719  -24.3621 N   0  0  0  0  0  0  0  0  0  0  0  0
    4.1320  -47.1261  -30.0387 C   0  0  0  0  0  0  0  0  0  0  0  0
    3.7214  -46.9911  -28.6196 C   0  0  0  0  0  0  0  0  0  0  0  0
    3.7119  -48.0799  -27.7471 C   0  0  0  0  0  0  0  0  0  0  0  0
    3.3316  -47.9470  -26.4391 C   0  0  0  0  0  0  0  0  0  0  0  0
    2.9494  -46.7076  -25.9755 C   0  0  0  0  0  0  0  0  0  0  0  0
    2.9487  -45.6119  -26.8155 C   0  0  0  0  0  0  0  0  0  0  0  0
    3.3361  -45.7566  -28.1407 C   0  0  0  0  0  0  0  0  0  0  0  0
    3.3199  -44.6438  -28.9363 F   0  0  0  0  0  0  0  0  0  0  0  0
    2.2927  -50.8010  -22.5029 C   0  0  0  0  0  0  0  0  0  0  0  0
    1.2259  -49.8445  -22.0056 C   0  0  0  0  0  0  0  0  0  0  0  0
    0.4398  -50.6379  -20.9920 C   0  0  0  0  0  0  0  0  0  0  0  0
    1.3388  -50.9966  -19.8710 N   0  0  0  0  0  0  0  0  0  0  0  0
    2.6309  -51.5104  -20.1677 C   0  0  0  0  0  0  0  0  0  0  0  0
    3.3075  -50.8489  -21.3803 C   0  0  0  0  0  0  0  0  0  0  0  0
    0.7862  -50.7409  -18.5911 C   0  0  0  0  0  0  0  0  0  0  0  0
    1.2053  -49.6636  -17.8543 N   0  0  0  0  0  0  0  0  0  0  0  0
    0.7330  -49.4162  -16.6300 C   0  0  0  0  0  0  0  0  0  0  0  0
   -0.1752  -50.2073  -16.0569 N   0  0  0  0  0  0  0  0  0  0  0  0
   -0.6335  -51.2798  -16.7160 C   0  0  0  0  0  0  0  0  0  0  0  0
   -1.6067  -52.1605  -16.1476 N   0  0  0  0  0  0  0  0  0  0  0  0
   -0.1370  -51.5429  -18.0090 C   0  0  0  0  0  0  0  0  0  0  0  0
   -1.3369  -52.7715  -15.3275 H   0  0  0  0  0  0  0  0  0  0  0  0
   -2.5808  -52.2375  -16.4986 H   0  0  0  0  0  0  0  0  0  0  0  0
   -0.6926  -52.6839  -18.6962 C   0  0  0  0  0  0  0  0  0  0  0  0
   -1.1123  -53.6051  -19.2638 N   0  0  0  0  0  0  0  0  0  0  0  0
    4.2852  -52.3191  -24.3909 C   0  0  0  0  0  0  0  0  0  0  0  0
    5.7791  -52.2092  -24.3191 C   0  0  0  0  0  0  0  0  0  0  0  0
    6.2787  -51.7340  -23.1342 O   0  0  0  0  0  0  0  0  0  0  0  0
    7.0527  -52.2703  -22.7882 H   0  0  0  0  0  0  0  0  0  0  0  0
  6  7  1  0  0  0
  7  8  2  0  0  0
  8  9  1  0  0  0
  9  1  1  0  0  0
  1  2  2  0  0  0
  2  3  1  0  0  0
  3 31  1  0  0  0
 31 32  1  0  0  0
 32 33  1  0  0  0
  3  4  1  0  0  0
  4 14  1  0  0  0
 14 15  1  0  0  0
 15 16  1  0  0  0
 16 17  1  0  0  0
 17 20  1  0  0  0
 20 21  2  0  0  0
 21 22  1  0  0  0
 22 23  2  0  0  0
 23 24  1  0  0  0
 24 25  1  0  0  0
 24 26  2  0  0  0
 26 29  1  0  0  0
 29 30  3  0  0  0
 17 18  1  0  0  0
 18 19  1  0  0  0
  4  5  2  0  0  0
  9 10  2  0  0  0
 10 11  1  0  0  0
 11 12  2  0  0  0
 12 13  1  0  0  0
 12  7  1  0  0  0
  5  1  1  0  0  0
 19 14  1  0  0  0
 26 20  1  0  0  0
 33 34  1  0  0  0
 25 27  1  0  0  0
 25 28  1  0  0  0
M  END
> <minimizedAffinity>
-6.37210

> <CNNscore>
0.0938456878

> <CNNaffinity>
6.1071257591

> <CNN_VS>
0.5731273890

> <CNNaffinity_variance>
0.3211269677

$$$$
[H]OC([H])([H])C([H])([H])n1c(C2([H])C([H])([H])C([H])([H])N(c3nc([H])nc(N([H])[H])c3C#N)C([H])([H])C2([H])[H])nc(-c2c([H])c([H])c(F)c(C([H])([H])[H])c2[H])c1[H]


 34 37  0  0  0  0  0  0  0  0999 V2000
    2.4491  -50.3075  -25.0413 C   0  0  0  0  0  0  0  0  0  0  0  0
    3.0098  -49.3745  -25.8813 C   0  0  0  0  0  0  0  0  0  0  0  0
    3.5439  -48.3937  -25.0866 N   0  0  0  0  0  0  0  0  0  0  0  0
    3.3244  -48.7033  -23.8064 C   0  0  0  0  0  0  0  0  0  0  0  0
    2.6583  -49.8693  -23.8032 N   0  0  0  0  0  0  0  0  0  0  0  0
    0.9970  -53.5441  -28.5663 C   0  0  0  0  0  0  0  0  0  0  0  0
    1.0576  -53.0980  -27.1527 C   0  0  0  0  0  0  0  0  0  0  0  0
    1.7175  -51.9278  -26.7756 C   0  0  0  0  0  0  0  0  0  0  0  0
    1.7689  -51.5232  -25.4691 C   0  0  0  0  0  0  0  0  0  0  0  0
    1.1537  -52.2913  -24.5056 C   0  0  0  0  0  0  0  0  0  0  0  0
    0.4932  -53.4541  -24.8487 C   0  0  0  0  0  0  0  0  0  0  0  0
    0.4464  -53.8564  -26.1765 C   0  0  0  0  0  0  0  0  0  0  0  0
   -0.2190  -55.0151  -26.4701 F   0  0  0  0  0  0  0  0  0  0  0  0
    3.7150  -47.9417  -22.6224 C   0  0  0  0  0  0  0  0  0  0  0  0
    5.2167  -47.7395  -22.5588 C   0  0  0  0  0  0  0  0  0  0  0  0
    5.4111  -46.6000  -21.5900 C   0  0  0  0  0  0  0  0  0  0  0  0
    4.9155  -47.0203  -20.2592 N   0  0  0  0  0  0  0  0  0  0  0  0
    3.6569  -47.6760  -20.1735 C   0  0  0  0  0  0  0  0  0  0  0  0
    3.3763  -48.6520  -21.3288 C   0  0  0  0  0  0  0  0  0  0  0  0
    5.8112  -46.7327  -19.1990 C   0  0  0  0  0  0  0  0  0  0  0  0
    6.9638  -47.4586  -19.0449 N   0  0  0  0  0  0  0  0  0  0  0  0
    7.8095  -47.2386  -18.0352 C   0  0  0  0  0  0  0  0  0  0  0  0
    7.5767  -46.2971  -17.1194 N   0  0  0  0  0  0  0  0  0  0  0  0
    6.4706  -45.5462  -17.2041 C   0  0  0  0  0  0  0  0  0  0  0  0
    6.1730  -44.5239  -16.2490 N   0  0  0  0  0  0  0  0  0  0  0  0
    5.5763  -45.7760  -18.2696 C   0  0  0  0  0  0  0  0  0  0  0  0
    5.9199  -44.7971  -15.2590 H   0  0  0  0  0  0  0  0  0  0  0  0
    6.1908  -43.5104  -16.4736 H   0  0  0  0  0  0  0  0  0  0  0  0
    4.4217  -44.9134  -18.3433 C   0  0  0  0  0  0  0  0  0  0  0  0
    3.4754  -44.2447  -18.4080 N   0  0  0  0  0  0  0  0  0  0  0  0
    4.2183  -47.2582  -25.6420 C   0  0  0  0  0  0  0  0  0  0  0  0
    5.3381  -47.7266  -26.5228 C   0  0  0  0  0  0  0  0  0  0  0  0
    6.3478  -48.3994  -25.8847 O   0  0  0  0  0  0  0  0  0  0  0  0
    6.6255  -49.2383  -26.3596 H   0  0  0  0  0  0  0  0  0  0  0  0
  6  7  1  0  0  0
  7  8  2  0  0  0
  8  9  1  0  0  0
  9  1  1  0  0  0
  1  2  2  0  0  0
  2  3  1  0  0  0
  3 31  1  0  0  0
 31 32  1  0  0  0
 32 33  1  0  0  0
  3  4  1  0  0  0
  4 14  1  0  0  0
 14 15  1  0  0  0
 15 16  1  0  0  0
 16 17  1  0  0  0
 17 20  1  0  0  0
 20 21  2  0  0  0
 21 22  1  0  0  0
 22 23  2  0  0  0
 23 24  1  0  0  0
 24 25  1  0  0  0
 24 26  2  0  0  0
 26 29  1  0  0  0
 29 30  3  0  0  0
 17 18  1  0  0  0
 18 19  1  0  0  0
  4  5  2  0  0  0
  9 10  2  0  0  0
 10 11  1  0  0  0
 11 12  2  0  0  0
 12 13  1  0  0  0
 12  7  1  0  0  0
  5  1  1  0  0  0
 19 14  1  0  0  0
 26 20  1  0  0  0
 33 34  1  0  0  0
 25 27  1  0  0  0
 25 28  1  0  0  0
M  END
> <minimizedAffinity>
-4.94139

> <CNNscore>
0.0935845450

> <CNNaffinity>
5.7111253738

> <CNN_VS>
0.5344730616

> <CNNaffinity_variance>
0.6022995710

$$$$
[H]OC([H])([H])C([H])([H])n1c(C2([H])C([H])([H])C([H])([H])N(c3nc([H])nc(N([H])[H])c3C#N)C([H])([H])C2([H])[H])nc(-c2c([H])c([H])c(F)c(C([H])([H])[H])c2[H])c1[H]


 34 37  0  0  0  0  0  0  0  0999 V2000
    0.3302  -52.3228  -24.2471 C   0  0  0  0  0  0  0  0  0  0  0  0
    0.0523  -53.2924  -23.3126 C   0  0  0  0  0  0  0  0  0  0  0  0
    0.4411  -52.7953  -22.0958 N   0  0  0  0  0  0  0  0  0  0  0  0
    0.9400  -51.5685  -22.2663 C   0  0  0  0  0  0  0  0  0  0  0  0
    0.8624  -51.3027  -23.5802 N   0  0  0  0  0  0  0  0  0  0  0  0
   -2.7561  -52.4736  -28.1792 C   0  0  0  0  0  0  0  0  0  0  0  0
   -1.3956  -52.5107  -27.5888 C   0  0  0  0  0  0  0  0  0  0  0  0
   -1.1842  -52.4002  -26.2140 C   0  0  0  0  0  0  0  0  0  0  0  0
    0.0743  -52.4353  -25.6772 C   0  0  0  0  0  0  0  0  0  0  0  0
    1.1563  -52.5834  -26.5165 C   0  0  0  0  0  0  0  0  0  0  0  0
    0.9781  -52.6952  -27.8810 C   0  0  0  0  0  0  0  0  0  0  0  0
   -0.3023  -52.6584  -28.4162 C   0  0  0  0  0  0  0  0  0  0  0  0
   -0.4311  -52.7729  -29.7733 F   0  0  0  0  0  0  0  0  0  0  0  0
    1.4762  -50.6712  -21.2455 C   0  0  0  0  0  0  0  0  0  0  0  0
    1.4317  -49.2235  -21.6954 C   0  0  0  0  0  0  0  0  0  0  0  0
    1.5720  -48.4214  -20.4258 C   0  0  0  0  0  0  0  0  0  0  0  0
    2.8959  -48.7092  -19.8277 N   0  0  0  0  0  0  0  0  0  0  0  0
    3.3264  -50.0612  -19.7369 C   0  0  0  0  0  0  0  0  0  0  0  0
    2.9383  -50.9274  -20.9473 C   0  0  0  0  0  0  0  0  0  0  0  0
    3.6098  -47.5495  -19.4351 C   0  0  0  0  0  0  0  0  0  0  0  0
    3.3798  -46.9702  -18.2141 N   0  0  0  0  0  0  0  0  0  0  0  0
    4.0072  -45.8560  -17.8296 C   0  0  0  0  0  0  0  0  0  0  0  0
    4.8947  -45.2452  -18.6161 N   0  0  0  0  0  0  0  0  0  0  0  0
    5.1727  -45.7528  -19.8243 C   0  0  0  0  0  0  0  0  0  0  0  0
    6.1154  -45.1376  -20.7066 N   0  0  0  0  0  0  0  0  0  0  0  0
    4.5121  -46.9295  -20.2325 C   0  0  0  0  0  0  0  0  0  0  0  0
    5.8822  -44.2038  -21.1452 H   0  0  0  0  0  0  0  0  0  0  0  0
    7.0325  -45.5609  -20.9472 H   0  0  0  0  0  0  0  0  0  0  0  0
    4.8767  -47.4622  -21.5232 C   0  0  0  0  0  0  0  0  0  0  0  0
    5.1840  -47.8637  -22.5679 N   0  0  0  0  0  0  0  0  0  0  0  0
    0.2866  -53.5516  -20.8889 C   0  0  0  0  0  0  0  0  0  0  0  0
   -1.1138  -53.3909  -20.3770 C   0  0  0  0  0  0  0  0  0  0  0  0
   -1.9303  -54.4796  -20.5427 O   0  0  0  0  0  0  0  0  0  0  0  0
   -2.4570  -54.7075  -19.7198 H   0  0  0  0  0  0  0  0  0  0  0  0
  6  7  1  0  0  0
  7  8  2  0  0  0
  8  9  1  0  0  0
  9  1  1  0  0  0
  1  2  2  0  0  0
  2  3  1  0  0  0
  3 31  1  0  0  0
 31 32  1  0  0  0
 32 33  1  0  0  0
  3  4  1  0  0  0
  4 14  1  0  0  0
 14 15  1  0  0  0
 15 16  1  0  0  0
 16 17  1  0  0  0
 17 20  1  0  0  0
 20 21  2  0  0  0
 21 22  1  0  0  0
 22 23  2  0  0  0
 23 24  1  0  0  0
 24 25  1  0  0  0
 24 26  2  0  0  0
 26 29  1  0  0  0
 29 30  3  0  0  0
 17 18  1  0  0  0
 18 19  1  0  0  0
  4  5  2  0  0  0
  9 10  2  0  0  0
 10 11  1  0  0  0
 11 12  2  0  0  0
 12 13  1  0  0  0
 12  7  1  0  0  0
  5  1  1  0  0  0
 19 14  1  0  0  0
 26 20  1  0  0  0
 33 34  1  0  0  0
 25 27  1  0  0  0
 25 28  1  0  0  0
M  END
> <minimizedAffinity>
-7.76717

> <CNNscore>
0.0883932784

> <CNNaffinity>
6.0684995651

> <CNN_VS>
0.5364145637

> <CNNaffinity_variance>
0.0930659026

$$$$
[H]OC([H])([H])C([H])([H])n1c(C2([H])C([H])([H])C([H])([H])N(c3nc([H])nc(N([H])[H])c3C#N)C([H])([H])C2([H])[H])nc(-c2c([H])c([H])c(F)c(C([H])([H])[H])c2[H])c1[H]


 34 37  0  0  0  0  0  0  0  0999 V2000
    3.4459  -49.1016  -26.0962 C   0  0  0  0  0  0  0  0  0  0  0  0
    3.3184  -50.2915  -26.7731 C   0  0  0  0  0  0  0  0  0  0  0  0
    2.8784  -51.2201  -25.8659 N   0  0  0  0  0  0  0  0  0  0  0  0
    2.7383  -50.6326  -24.6750 C   0  0  0  0  0  0  0  0  0  0  0  0
    3.0884  -49.3467  -24.8389 N   0  0  0  0  0  0  0  0  0  0  0  0
    3.0489  -45.4152  -29.4522 C   0  0  0  0  0  0  0  0  0  0  0  0
    3.7173  -46.0545  -28.2922 C   0  0  0  0  0  0  0  0  0  0  0  0
    3.2673  -47.2604  -27.7535 C   0  0  0  0  0  0  0  0  0  0  0  0
    3.8895  -47.8437  -26.6830 C   0  0  0  0  0  0  0  0  0  0  0  0
    4.9860  -47.2233  -26.1262 C   0  0  0  0  0  0  0  0  0  0  0  0
    5.4540  -46.0295  -26.6379 C   0  0  0  0  0  0  0  0  0  0  0  0
    4.8162  -45.4455  -27.7238 C   0  0  0  0  0  0  0  0  0  0  0  0
    5.3146  -44.2627  -28.1974 F   0  0  0  0  0  0  0  0  0  0  0  0
    2.2982  -51.2432  -23.4228 C   0  0  0  0  0  0  0  0  0  0  0  0
    0.9761  -50.6662  -22.9546 C   0  0  0  0  0  0  0  0  0  0  0  0
    0.4493  -51.6694  -21.9592 C   0  0  0  0  0  0  0  0  0  0  0  0
    1.3873  -51.7388  -20.8152 N   0  0  0  0  0  0  0  0  0  0  0  0
    2.7818  -51.8262  -21.0781 C   0  0  0  0  0  0  0  0  0  0  0  0
    3.2502  -50.9812  -22.2750 C   0  0  0  0  0  0  0  0  0  0  0  0
    0.7514  -51.6736  -19.5502 C   0  0  0  0  0  0  0  0  0  0  0  0
    1.1294  -50.7319  -18.6285 N   0  0  0  0  0  0  0  0  0  0  0  0
    0.5774  -50.6680  -17.4143 C   0  0  0  0  0  0  0  0  0  0  0  0
   -0.3749  -51.5202  -17.0324 N   0  0  0  0  0  0  0  0  0  0  0  0
   -0.7974  -52.4684  -17.8793 C   0  0  0  0  0  0  0  0  0  0  0  0
   -1.8151  -53.4071  -17.5203 N   0  0  0  0  0  0  0  0  0  0  0  0
   -0.2167  -52.5377  -19.1621 C   0  0  0  0  0  0  0  0  0  0  0  0
   -1.6073  -54.1430  -16.7896 H   0  0  0  0  0  0  0  0  0  0  0  0
   -2.7637  -53.4096  -17.9422 H   0  0  0  0  0  0  0  0  0  0  0  0
   -0.7348  -53.5472  -20.0538 C   0  0  0  0  0  0  0  0  0  0  0  0
   -1.1791  -54.3567  -20.7568 N   0  0  0  0  0  0  0  0  0  0  0  0
    2.6310  -52.5808  -26.2404 C   0  0  0  0  0  0  0  0  0  0  0  0
    2.9278  -52.7567  -27.6999 C   0  0  0  0  0  0  0  0  0  0  0  0
    2.5550  -53.9622  -28.2359 O   0  0  0  0  0  0  0  0  0  0  0  0
    2.0760  -53.8736  -29.1129 H   0  0  0  0  0  0  0  0  0  0  0  0
  6  7  1  0  0  0
  7  8  2  0  0  0
  8  9  1  0  0  0
  9  1  1  0  0  0
  1  2  2  0  0  0
  2  3  1  0  0  0
  3 31  1  0  0  0
 31 32  1  0  0  0
 32 33  1  0  0  0
  3  4  1  0  0  0
  4 14  1  0  0  0
 14 15  1  0  0  0
 15 16  1  0  0  0
 16 17  1  0  0  0
 17 20  1  0  0  0
 20 21  2  0  0  0
 21 22  1  0  0  0
 22 23  2  0  0  0
 23 24  1  0  0  0
 24 25  1  0  0  0
 24 26  2  0  0  0
 26 29  1  0  0  0
 29 30  3  0  0  0
 17 18  1  0  0  0
 18 19  1  0  0  0
  4  5  2  0  0  0
  9 10  2  0  0  0
 10 11  1  0  0  0
 11 12  2  0  0  0
 12 13  1  0  0  0
 12  7  1  0  0  0
  5  1  1  0  0  0
 19 14  1  0  0  0
 26 20  1  0  0  0
 33 34  1  0  0  0
 25 27  1  0  0  0
 25 28  1  0  0  0
M  END
> <minimizedAffinity>
-7.07842

> <CNNscore>
0.0868480504

> <CNNaffinity>
6.3727164268

> <CNN_VS>
0.5534579754

> <CNNaffinity_variance>
0.2258680761

$$$$
[H]OC([H])([H])C([H])([H])n1c(C2([H])C([H])([H])C([H])([H])N(c3nc([H])nc(N([H])[H])c3C#N)C([H])([H])C2([H])[H])nc(-c2c([H])c([H])c(F)c(C([H])([H])[H])c2[H])c1[H]


 34 37  0  0  0  0  0  0  0  0999 V2000
    0.6232  -52.3703  -24.6053 C   0  0  0  0  0  0  0  0  0  0  0  0
   -0.0739  -52.7933  -23.4982 C   0  0  0  0  0  0  0  0  0  0  0  0
    0.6778  -52.4570  -22.4023 N   0  0  0  0  0  0  0  0  0  0  0  0
    1.7953  -51.8507  -22.8106 C   0  0  0  0  0  0  0  0  0  0  0  0
    1.7403  -51.8092  -24.1517 N   0  0  0  0  0  0  0  0  0  0  0  0
   -2.9320  -52.4778  -28.1207 C   0  0  0  0  0  0  0  0  0  0  0  0
   -1.5138  -52.5841  -27.6985 C   0  0  0  0  0  0  0  0  0  0  0  0
   -1.1262  -52.4282  -26.3673 C   0  0  0  0  0  0  0  0  0  0  0  0
    0.1845  -52.5277  -25.9859 C   0  0  0  0  0  0  0  0  0  0  0  0
    1.1418  -52.7882  -26.9413 C   0  0  0  0  0  0  0  0  0  0  0  0
    0.7883  -52.9473  -28.2664 C   0  0  0  0  0  0  0  0  0  0  0  0
   -0.5438  -52.8446  -28.6435 C   0  0  0  0  0  0  0  0  0  0  0  0
   -0.8477  -53.0095  -29.9671 F   0  0  0  0  0  0  0  0  0  0  0  0
    2.8826  -51.3296  -21.9856 C   0  0  0  0  0  0  0  0  0  0  0  0
    2.7505  -49.8347  -21.7668 C   0  0  0  0  0  0  0  0  0  0  0  0
    3.6299  -49.5406  -20.5773 C   0  0  0  0  0  0  0  0  0  0  0  0
    5.0309  -49.8627  -20.9330 N   0  0  0  0  0  0  0  0  0  0  0  0
    5.3037  -51.0911  -21.5949 C   0  0  0  0  0  0  0  0  0  0  0  0
    4.2419  -51.4962  -22.6315 C   0  0  0  0  0  0  0  0  0  0  0  0
    5.9570  -48.8483  -20.5832 C   0  0  0  0  0  0  0  0  0  0  0  0
    6.5251  -48.8241  -19.3359 N   0  0  0  0  0  0  0  0  0  0  0  0
    7.3713  -47.8613  -18.9618 C   0  0  0  0  0  0  0  0  0  0  0  0
    7.7102  -46.8682  -19.7853 N   0  0  0  0  0  0  0  0  0  0  0  0
    7.1959  -46.8247  -21.0215 C   0  0  0  0  0  0  0  0  0  0  0  0
    7.5257  -45.7823  -21.9438 N   0  0  0  0  0  0  0  0  0  0  0  0
    6.3027  -47.8404  -21.4192 C   0  0  0  0  0  0  0  0  0  0  0  0
    7.1826  -44.7990  -21.7592 H   0  0  0  0  0  0  0  0  0  0  0  0
    8.0924  -45.9361  -22.8000 H   0  0  0  0  0  0  0  0  0  0  0  0
    5.8093  -47.7749  -22.7738 C   0  0  0  0  0  0  0  0  0  0  0  0
    5.4101  -47.6913  -23.8604 N   0  0  0  0  0  0  0  0  0  0  0  0
    0.2396  -52.7489  -21.0699 C   0  0  0  0  0  0  0  0  0  0  0  0
   -0.1639  -54.1908  -20.9836 C   0  0  0  0  0  0  0  0  0  0  0  0
   -1.4385  -54.4201  -20.5340 O   0  0  0  0  0  0  0  0  0  0  0  0
   -1.9378  -55.0918  -21.0871 H   0  0  0  0  0  0  0  0  0  0  0  0
  6  7  1  0  0  0
  7  8  2  0  0  0
  8  9  1  0  0  0
  9  1  1  0  0  0
  1  2  2  0  0  0
  2  3  1  0  0  0
  3 31  1  0  0  0
 31 32  1  0  0  0
 32 33  1  0  0  0
  3  4  1  0  0  0
  4 14  1  0  0  0
 14 15  1  0  0  0
 15 16  1  0  0  0
 16 17  1  0  0  0
 17 20  1  0  0  0
 20 21  2  0  0  0
 21 22  1  0  0  0
 22 23  2  0  0  0
 23 24  1  0  0  0
 24 25  1  0  0  0
 24 26  2  0  0  0
 26 29  1  0  0  0
 29 30  3  0  0  0
 17 18  1  0  0  0
 18 19  1  0  0  0
  4  5  2  0  0  0
  9 10  2  0  0  0
 10 11  1  0  0  0
 11 12  2  0  0  0
 12 13  1  0  0  0
 12  7  1  0  0  0
  5  1  1  0  0  0
 19 14  1  0  0  0
 26 20  1  0  0  0
 33 34  1  0  0  0
 25 27  1  0  0  0
 25 28  1  0  0  0
M  END
> <minimizedAffinity>
-7.78902

> <CNNscore>
0.0737672970

> <CNNaffinity>
6.1836719513

> <CNN_VS>
0.4561527669

> <CNNaffinity_variance>
0.1778964549

$$$$
[H]OC([H])([H])C([H])([H])n1c(C2([H])C([H])([H])C([H])([H])N(c3nc([H])nc(N([H])[H])c3C#N)C([H])([H])C2([H])[H])nc(-c2c([H])c([H])c(F)c(C([H])([H])[H])c2[H])c1[H]


 34 37  0  0  0  0  0  0  0  0999 V2000
    1.5122  -52.0791  -23.0807 C   0  0  0  0  0  0  0  0  0  0  0  0
    2.7727  -51.7830  -22.6178 C   0  0  0  0  0  0  0  0  0  0  0  0
    2.6830  -51.6867  -21.2534 N   0  0  0  0  0  0  0  0  0  0  0  0
    1.4202  -51.9132  -20.8833 C   0  0  0  0  0  0  0  0  0  0  0  0
    0.7276  -52.1492  -22.0092 N   0  0  0  0  0  0  0  0  0  0  0  0
   -1.8072  -52.1086  -26.8210 C   0  0  0  0  0  0  0  0  0  0  0  0
   -0.4302  -52.2906  -26.2998 C   0  0  0  0  0  0  0  0  0  0  0  0
   -0.1194  -52.1000  -24.9530 C   0  0  0  0  0  0  0  0  0  0  0  0
    1.1537  -52.2699  -24.4801 C   0  0  0  0  0  0  0  0  0  0  0  0
    2.1501  -52.6379  -25.3569 C   0  0  0  0  0  0  0  0  0  0  0  0
    1.8726  -52.8337  -26.6951 C   0  0  0  0  0  0  0  0  0  0  0  0
    0.5782  -52.6590  -27.1654 C   0  0  0  0  0  0  0  0  0  0  0  0
    0.3496  -52.8638  -28.4986 F   0  0  0  0  0  0  0  0  0  0  0  0
    0.8701  -51.9071  -19.5298 C   0  0  0  0  0  0  0  0  0  0  0  0
   -0.5165  -52.5200  -19.4878 C   0  0  0  0  0  0  0  0  0  0  0  0
   -0.7462  -52.8533  -18.0349 C   0  0  0  0  0  0  0  0  0  0  0  0
   -0.7418  -51.5950  -17.2540 N   0  0  0  0  0  0  0  0  0  0  0  0
    0.2842  -50.6416  -17.4985 C   0  0  0  0  0  0  0  0  0  0  0  0
    0.6802  -50.5097  -18.9789 C   0  0  0  0  0  0  0  0  0  0  0  0
   -1.8250  -51.4815  -16.3469 C   0  0  0  0  0  0  0  0  0  0  0  0
   -2.7576  -52.4813  -16.2475 N   0  0  0  0  0  0  0  0  0  0  0  0
   -3.8104  -52.3889  -15.4313 C   0  0  0  0  0  0  0  0  0  0  0  0
   -4.0111  -51.3148  -14.6663 N   0  0  0  0  0  0  0  0  0  0  0  0
   -3.1415  -50.2966  -14.7083 C   0  0  0  0  0  0  0  0  0  0  0  0
   -3.3097  -49.1222  -13.9094 N   0  0  0  0  0  0  0  0  0  0  0  0
   -2.0287  -50.3919  -15.5688 C   0  0  0  0  0  0  0  0  0  0  0  0
   -4.1060  -48.4597  -14.1227 H   0  0  0  0  0  0  0  0  0  0  0  0
   -2.6848  -48.8764  -13.1175 H   0  0  0  0  0  0  0  0  0  0  0  0
   -1.0972  -49.2898  -15.5470 C   0  0  0  0  0  0  0  0  0  0  0  0
   -0.3706  -48.3849  -15.5397 N   0  0  0  0  0  0  0  0  0  0  0  0
    3.8266  -51.3918  -20.4423 C   0  0  0  0  0  0  0  0  0  0  0  0
    4.3559  -50.0358  -20.8029 C   0  0  0  0  0  0  0  0  0  0  0  0
    3.5268  -48.9833  -20.5126 O   0  0  0  0  0  0  0  0  0  0  0  0
    3.9989  -48.2206  -20.0633 H   0  0  0  0  0  0  0  0  0  0  0  0
  6  7  1  0  0  0
  7  8  2  0  0  0
  8  9  1  0  0  0
  9  1  1  0  0  0
  1  2  2  0  0  0
  2  3  1  0  0  0
  3 31  1  0  0  0
 31 32  1  0  0  0
 32 33  1  0  0  0
  3  4  1  0  0  0
  4 14  1  0  0  0
 14 15  1  0  0  0
 15 16  1  0  0  0
 16 17  1  0  0  0
 17 20  1  0  0  0
 20 21  2  0  0  0
 21 22  1  0  0  0
 22 23  2  0  0  0
 23 24  1  0  0  0
 24 25  1  0  0  0
 24 26  2  0  0  0
 26 29  1  0  0  0
 29 30  3  0  0  0
 17 18  1  0  0  0
 18 19  1  0  0  0
  4  5  2  0  0  0
  9 10  2  0  0  0
 10 11  1  0  0  0
 11 12  2  0  0  0
 12 13  1  0  0  0
 12  7  1  0  0  0
  5  1  1  0  0  0
 19 14  1  0  0  0
 26 20  1  0  0  0
 33 34  1  0  0  0
 25 27  1  0  0  0
 25 28  1  0  0  0
M  END
> <minimizedAffinity>
-7.34131

> <CNNscore>
0.0730923712

> <CNNaffinity>
6.2587265968

> <CNN_VS>
0.4574651718

> <CNNaffinity_variance>
0.2299056053

$$$$
[H]OC([H])([H])C([H])([H])n1c(C2([H])C([H])([H])C([H])([H])N(c3nc([H])nc(N([H])[H])c3C#N)C([H])([H])C2([H])[H])nc(-c2c([H])c([H])c(F)c(C([H])([H])[H])c2[H])c1[H]


 34 37  0  0  0  0  0  0  0  0999 V2000
    1.0561  -51.5299  -25.0057 C   0  0  0  0  0  0  0  0  0  0  0  0
    2.4191  -51.5350  -25.1866 C   0  0  0  0  0  0  0  0  0  0  0  0
    2.9799  -51.1524  -23.9958 N   0  0  0  0  0  0  0  0  0  0  0  0
    2.0068  -50.9190  -23.1117 C   0  0  0  0  0  0  0  0  0  0  0  0
    0.8476  -51.1548  -23.7470 N   0  0  0  0  0  0  0  0  0  0  0  0
   -0.1933  -52.9597  -29.6322 C   0  0  0  0  0  0  0  0  0  0  0  0
   -0.5545  -52.5643  -28.2487 C   0  0  0  0  0  0  0  0  0  0  0  0
    0.4131  -52.2392  -27.2974 C   0  0  0  0  0  0  0  0  0  0  0  0
    0.0716  -51.8754  -26.0229 C   0  0  0  0  0  0  0  0  0  0  0  0
   -1.2600  -51.8301  -25.6737 C   0  0  0  0  0  0  0  0  0  0  0  0
   -2.2397  -52.1464  -26.5936 C   0  0  0  0  0  0  0  0  0  0  0  0
   -1.8835  -52.5143  -27.8839 C   0  0  0  0  0  0  0  0  0  0  0  0
   -2.8875  -52.8191  -28.7617 F   0  0  0  0  0  0  0  0  0  0  0  0
    2.1450  -50.4869  -21.7229 C   0  0  0  0  0  0  0  0  0  0  0  0
    2.2239  -51.6687  -20.7756 C   0  0  0  0  0  0  0  0  0  0  0  0
    2.8054  -51.1042  -19.5036 C   0  0  0  0  0  0  0  0  0  0  0  0
    1.8642  -50.0994  -18.9578 N   0  0  0  0  0  0  0  0  0  0  0  0
    1.3013  -49.1383  -19.8413 C   0  0  0  0  0  0  0  0  0  0  0  0
    0.9531  -49.6918  -21.2335 C   0  0  0  0  0  0  0  0  0  0  0  0
    1.6080  -50.2500  -17.5719 C   0  0  0  0  0  0  0  0  0  0  0  0
    2.3123  -49.5197  -16.6501 N   0  0  0  0  0  0  0  0  0  0  0  0
    2.1223  -49.6654  -15.3365 C   0  0  0  0  0  0  0  0  0  0  0  0
    1.2336  -50.5327  -14.8495 N   0  0  0  0  0  0  0  0  0  0  0  0
    0.5065  -51.2818  -15.6892 C   0  0  0  0  0  0  0  0  0  0  0  0
   -0.4593  -52.2266  -15.2200 N   0  0  0  0  0  0  0  0  0  0  0  0
    0.7047  -51.1294  -17.0767 C   0  0  0  0  0  0  0  0  0  0  0  0
   -0.1312  -53.0971  -14.7168 H   0  0  0  0  0  0  0  0  0  0  0  0
   -1.4829  -52.1068  -15.3462 H   0  0  0  0  0  0  0  0  0  0  0  0
   -0.1320  -51.9259  -17.9416 C   0  0  0  0  0  0  0  0  0  0  0  0
   -0.7823  -52.5878  -18.6387 N   0  0  0  0  0  0  0  0  0  0  0  0
    4.3996  -51.0562  -23.8281 C   0  0  0  0  0  0  0  0  0  0  0  0
    5.0216  -52.3984  -24.0743 C   0  0  0  0  0  0  0  0  0  0  0  0
    6.1838  -52.3849  -24.8013 O   0  0  0  0  0  0  0  0  0  0  0  0
    6.9044  -52.9596  -24.4052 H   0  0  0  0  0  0  0  0  0  0  0  0
  6  7  1  0  0  0
  7  8  2  0  0  0
  8  9  1  0  0  0
  9  1  1  0  0  0
  1  2  2  0  0  0
  2  3  1  0  0  0
  3 31  1  0  0  0
 31 32  1  0  0  0
 32 33  1  0  0  0
  3  4  1  0  0  0
  4 14  1  0  0  0
 14 15  1  0  0  0
 15 16  1  0  0  0
 16 17  1  0  0  0
 17 20  1  0  0  0
 20 21  2  0  0  0
 21 22  1  0  0  0
 22 23  2  0  0  0
 23 24  1  0  0  0
 24 25  1  0  0  0
 24 26  2  0  0  0
 26 29  1  0  0  0
 29 30  3  0  0  0
 17 18  1  0  0  0
 18 19  1  0  0  0
  4  5  2  0  0  0
  9 10  2  0  0  0
 10 11  1  0  0  0
 11 12  2  0  0  0
 12 13  1  0  0  0
 12  7  1  0  0  0
  5  1  1  0  0  0
 19 14  1  0  0  0
 26 20  1  0  0  0
 33 34  1  0  0  0
 25 27  1  0  0  0
 25 28  1  0  0  0
M  END
> <minimizedAffinity>
-8.40848

> <CNNscore>
0.0713957176

> <CNNaffinity>
6.2515563965

> <CNN_VS>
0.4463343620

> <CNNaffinity_variance>
0.1161768064

$$$$
[H]OC([H])([H])C([H])([H])n1c(C2([H])C([H])([H])C([H])([H])N(c3nc([H])nc(N([H])[H])c3C#N)C([H])([H])C2([H])[H])nc(-c2c([H])c([H])c(F)c(C([H])([H])[H])c2[H])c1[H]


 34 37  0  0  0  0  0  0  0  0999 V2000
    0.4366  -52.2615  -24.3770 C   0  0  0  0  0  0  0  0  0  0  0  0
    0.0968  -53.1682  -23.4008 C   0  0  0  0  0  0  0  0  0  0  0  0
    0.5490  -52.6597  -22.2108 N   0  0  0  0  0  0  0  0  0  0  0  0
    1.1451  -51.4865  -22.4374 C   0  0  0  0  0  0  0  0  0  0  0  0
    1.0647  -51.2652  -23.7595 N   0  0  0  0  0  0  0  0  0  0  0  0
   -2.7471  -52.4945  -28.2265 C   0  0  0  0  0  0  0  0  0  0  0  0
   -1.3724  -52.5218  -27.6695 C   0  0  0  0  0  0  0  0  0  0  0  0
   -1.1266  -52.3802  -26.3034 C   0  0  0  0  0  0  0  0  0  0  0  0
    0.1449  -52.4063  -25.7974 C   0  0  0  0  0  0  0  0  0  0  0  0
    1.2053  -52.5767  -26.6597 C   0  0  0  0  0  0  0  0  0  0  0  0
    0.9928  -52.7194  -28.0163 C   0  0  0  0  0  0  0  0  0  0  0  0
   -0.3004  -52.6915  -28.5202 C   0  0  0  0  0  0  0  0  0  0  0  0
   -0.4633  -52.8369  -29.8707 F   0  0  0  0  0  0  0  0  0  0  0  0
    1.7736  -50.5994  -21.4614 C   0  0  0  0  0  0  0  0  0  0  0  0
    1.1242  -49.2289  -21.4530 C   0  0  0  0  0  0  0  0  0  0  0  0
    1.5450  -48.6116  -20.1428 C   0  0  0  0  0  0  0  0  0  0  0  0
    3.0179  -48.4570  -20.1436 N   0  0  0  0  0  0  0  0  0  0  0  0
    3.8200  -49.5461  -20.5816 C   0  0  0  0  0  0  0  0  0  0  0  0
    3.2299  -50.3234  -21.7706 C   0  0  0  0  0  0  0  0  0  0  0  0
    3.4584  -47.1779  -19.7208 C   0  0  0  0  0  0  0  0  0  0  0  0
    3.7088  -46.1896  -20.6372 N   0  0  0  0  0  0  0  0  0  0  0  0
    4.1610  -44.9865  -20.2753 C   0  0  0  0  0  0  0  0  0  0  0  0
    4.3940  -44.6812  -18.9979 N   0  0  0  0  0  0  0  0  0  0  0  0
    4.1719  -45.5957  -18.0445 C   0  0  0  0  0  0  0  0  0  0  0  0
    4.4054  -45.3205  -16.6605 N   0  0  0  0  0  0  0  0  0  0  0  0
    3.6938  -46.8666  -18.4239 C   0  0  0  0  0  0  0  0  0  0  0  0
    5.3978  -45.1938  -16.3173 H   0  0  0  0  0  0  0  0  0  0  0  0
    3.6445  -45.2361  -15.9592 H   0  0  0  0  0  0  0  0  0  0  0  0
    3.4283  -47.8031  -17.3584 C   0  0  0  0  0  0  0  0  0  0  0  0
    3.2382  -48.5436  -16.4853 N   0  0  0  0  0  0  0  0  0  0  0  0
    0.3551  -53.3541  -20.9727 C   0  0  0  0  0  0  0  0  0  0  0  0
   -1.0789  -53.2293  -20.5517 C   0  0  0  0  0  0  0  0  0  0  0  0
   -1.7461  -54.4137  -20.3743 O   0  0  0  0  0  0  0  0  0  0  0  0
   -2.2823  -54.4421  -19.5269 H   0  0  0  0  0  0  0  0  0  0  0  0
  6  7  1  0  0  0
  7  8  2  0  0  0
  8  9  1  0  0  0
  9  1  1  0  0  0
  1  2  2  0  0  0
  2  3  1  0  0  0
  3 31  1  0  0  0
 31 32  1  0  0  0
 32 33  1  0  0  0
  3  4  1  0  0  0
  4 14  1  0  0  0
 14 15  1  0  0  0
 15 16  1  0  0  0
 16 17  1  0  0  0
 17 20  1  0  0  0
 20 21  2  0  0  0
 21 22  1  0  0  0
 22 23  2  0  0  0
 23 24  1  0  0  0
 24 25  1  0  0  0
 24 26  2  0  0  0
 26 29  1  0  0  0
 29 30  3  0  0  0
 17 18  1  0  0  0
 18 19  1  0  0  0
  4  5  2  0  0  0
  9 10  2  0  0  0
 10 11  1  0  0  0
 11 12  2  0  0  0
 12 13  1  0  0  0
 12  7  1  0  0  0
  5  1  1  0  0  0
 19 14  1  0  0  0
 26 20  1  0  0  0
 33 34  1  0  0  0
 25 27  1  0  0  0
 25 28  1  0  0  0
M  END
> <minimizedAffinity>
-7.83211

> <CNNscore>
0.0713880211

> <CNNaffinity>
6.0792961121

> <CNN_VS>
0.4339889288

> <CNNaffinity_variance>
0.1078238934

$$$$
[H]OC([H])([H])C([H])([H])n1c(C2([H])C([H])([H])C([H])([H])N(c3nc([H])nc(N([H])[H])c3C#N)C([H])([H])C2([H])[H])nc(-c2c([H])c([H])c(F)c(C([H])([H])[H])c2[H])c1[H]


 34 37  0  0  0  0  0  0  0  0999 V2000
    2.0035  -51.8408  -22.5370 C   0  0  0  0  0  0  0  0  0  0  0  0
    3.1772  -51.1347  -22.6575 C   0  0  0  0  0  0  0  0  0  0  0  0
    3.4270  -50.5668  -21.4351 N   0  0  0  0  0  0  0  0  0  0  0  0
    2.4500  -50.9052  -20.5903 C   0  0  0  0  0  0  0  0  0  0  0  0
    1.5972  -51.6789  -21.2811 N   0  0  0  0  0  0  0  0  0  0  0  0
   -1.4094  -55.0924  -24.2070 C   0  0  0  0  0  0  0  0  0  0  0  0
   -0.2705  -54.1686  -24.4319 C   0  0  0  0  0  0  0  0  0  0  0  0
    0.3169  -53.4531  -23.3880 C   0  0  0  0  0  0  0  0  0  0  0  0
    1.3673  -52.6026  -23.6039 C   0  0  0  0  0  0  0  0  0  0  0  0
    1.8543  -52.4514  -24.8833 C   0  0  0  0  0  0  0  0  0  0  0  0
    1.2933  -53.1463  -25.9362 C   0  0  0  0  0  0  0  0  0  0  0  0
    0.2281  -54.0066  -25.7074 C   0  0  0  0  0  0  0  0  0  0  0  0
   -0.2960  -54.6742  -26.7803 F   0  0  0  0  0  0  0  0  0  0  0  0
    2.3073  -50.5210  -19.1879 C   0  0  0  0  0  0  0  0  0  0  0  0
    2.0499  -49.0338  -19.0398 C   0  0  0  0  0  0  0  0  0  0  0  0
    1.4880  -48.8770  -17.6489 C   0  0  0  0  0  0  0  0  0  0  0  0
    2.5187  -49.2966  -16.6717 N   0  0  0  0  0  0  0  0  0  0  0  0
    3.2275  -50.5073  -16.9023 C   0  0  0  0  0  0  0  0  0  0  0  0
    3.5642  -50.7672  -18.3805 C   0  0  0  0  0  0  0  0  0  0  0  0
    2.6982  -48.3832  -15.6029 C   0  0  0  0  0  0  0  0  0  0  0  0
    3.9181  -47.7969  -15.3854 N   0  0  0  0  0  0  0  0  0  0  0  0
    4.1306  -46.9621  -14.3651 C   0  0  0  0  0  0  0  0  0  0  0  0
    3.1634  -46.6530  -13.5002 N   0  0  0  0  0  0  0  0  0  0  0  0
    1.9435  -47.1865  -13.6483 C   0  0  0  0  0  0  0  0  0  0  0  0
    0.8714  -46.8888  -12.7495 N   0  0  0  0  0  0  0  0  0  0  0  0
    1.7162  -48.0677  -14.7251 C   0  0  0  0  0  0  0  0  0  0  0  0
    0.9143  -47.2462  -11.7549 H   0  0  0  0  0  0  0  0  0  0  0  0
    0.0376  -46.3324  -13.0201 H   0  0  0  0  0  0  0  0  0  0  0  0
    0.3757  -48.5825  -14.8687 C   0  0  0  0  0  0  0  0  0  0  0  0
   -0.6909  -49.0252  -14.9836 N   0  0  0  0  0  0  0  0  0  0  0  0
    4.5873  -49.7590  -21.2028 C   0  0  0  0  0  0  0  0  0  0  0  0
    5.8156  -50.5333  -21.5780 C   0  0  0  0  0  0  0  0  0  0  0  0
    7.0077  -49.9017  -21.3342 O   0  0  0  0  0  0  0  0  0  0  0  0
    7.6845  -50.4933  -20.8887 H   0  0  0  0  0  0  0  0  0  0  0  0
  6  7  1  0  0  0
  7  8  2  0  0  0
  8  9  1  0  0  0
  9  1  1  0  0  0
  1  2  2  0  0  0
  2  3  1  0  0  0
  3 31  1  0  0  0
 31 32  1  0  0  0
 32 33  1  0  0  0
  3  4  1  0  0  0
  4 14  1  0  0  0
 14 15  1  0  0  0
 15 16  1  0  0  0
 16 17  1  0  0  0
 17 20  1  0  0  0
 20 21  2  0  0  0
 21 22  1  0  0  0
 22 23  2  0  0  0
 23 24  1  0  0  0
 24 25  1  0  0  0
 24 26  2  0  0  0
 26 29  1  0  0  0
 29 30  3  0  0  0
 17 18  1  0  0  0
 18 19  1  0  0  0
  4  5  2  0  0  0
  9 10  2  0  0  0
 10 11  1  0  0  0
 11 12  2  0  0  0
 12 13  1  0  0  0
 12  7  1  0  0  0
  5  1  1  0  0  0
 19 14  1  0  0  0
 26 20  1  0  0  0
 33 34  1  0  0  0
 25 27  1  0  0  0
 25 28  1  0  0  0
M  END
> <minimizedAffinity>
-5.39072

> <CNNscore>
0.0672291443

> <CNNaffinity>
5.7750868797

> <CNN_VS>
0.3882541358

> <CNNaffinity_variance>
0.5173099637

$$$$
[H]Cl.[H]O[C@]([H])(C(=O)N([H])[C@]([H])(C(=O)OC([H])([H])n1c([H])c(F)c(=O)n([H])c1=O)C([H])([H])C([H])(C([H])([H])[H])C([H])([H])[H])[C@]([H])(N([H])[H])C([H])([H])c1c([H])c([H])c([H])c([H])c1[H]


 37 38  0  0  0  0  0  0  0  0999 V2000
    0.3529  -53.4537  -26.3113 C   0  0  0  0  0  0  0  0  0  0  0  0
    1.7411  -53.2990  -25.8587 N   0  0  0  0  0  0  0  0  0  0  0  0
    2.1802  -52.1197  -25.1972 C   0  0  0  0  0  0  0  0  0  0  0  0
    1.3435  -51.2079  -25.0096 O   0  0  0  0  0  0  0  0  0  0  0  0
    2.4480  -54.0513  -26.0094 H   0  0  0  0  0  0  0  0  0  0  0  0
    3.5781  -51.9435  -24.7316 C   0  0  0  0  0  0  0  0  0  0  0  0
    4.4457  -52.4556  -25.6865 O   0  0  0  0  0  0  0  0  0  0  0  0
    4.6339  -51.7650  -26.3642 H   0  0  0  0  0  0  0  0  0  0  0  0
    3.9207  -50.4766  -24.5120 C   0  0  0  0  0  0  0  0  0  0  0  0
    4.7960  -49.9717  -25.5220 N   0  0  0  0  0  0  0  0  0  0  0  0
    4.5712  -49.0110  -25.8424 H   0  0  0  0  0  0  0  0  0  0  0  0
    5.7946  -50.1519  -25.3909 H   0  0  0  0  0  0  0  0  0  0  0  0
    4.5388  -50.3724  -23.1445 C   0  0  0  0  0  0  0  0  0  0  0  0
    3.7317  -49.5828  -22.1918 C   0  0  0  0  0  0  0  0  0  0  0  0
    4.1871  -49.2358  -20.9306 C   0  0  0  0  0  0  0  0  0  0  0  0
    3.4282  -48.4955  -20.0407 C   0  0  0  0  0  0  0  0  0  0  0  0
    2.1799  -48.0828  -20.4032 C   0  0  0  0  0  0  0  0  0  0  0  0
    1.6866  -48.4030  -21.6426 C   0  0  0  0  0  0  0  0  0  0  0  0
    2.4471  -49.1364  -22.5153 C   0  0  0  0  0  0  0  0  0  0  0  0
   -0.3310  -54.4620  -25.4647 C   0  0  0  0  0  0  0  0  0  0  0  0
   -0.2381  -55.6829  -25.8417 O   0  0  0  0  0  0  0  0  0  0  0  0
   -1.0430  -54.2492  -24.3359 O   0  0  0  0  0  0  0  0  0  0  0  0
   -0.9802  -54.7987  -23.0788 C   0  0  0  0  0  0  0  0  0  0  0  0
   -0.5337  -53.9706  -22.0060 N   0  0  0  0  0  0  0  0  0  0  0  0
    0.6352  -53.3184  -21.9271 C   0  0  0  0  0  0  0  0  0  0  0  0
    0.9831  -52.5420  -20.8144 C   0  0  0  0  0  0  0  0  0  0  0  0
    2.1646  -51.8953  -20.7592 F   0  0  0  0  0  0  0  0  0  0  0  0
    0.1127  -52.4350  -19.7643 C   0  0  0  0  0  0  0  0  0  0  0  0
    0.3220  -51.7703  -18.7255 O   0  0  0  0  0  0  0  0  0  0  0  0
   -1.0618  -53.1040  -19.8684 N   0  0  0  0  0  0  0  0  0  0  0  0
   -1.3623  -53.8336  -20.9398 C   0  0  0  0  0  0  0  0  0  0  0  0
   -2.4969  -54.4245  -20.9367 O   0  0  0  0  0  0  0  0  0  0  0  0
   -1.7501  -53.0366  -19.0694 H   0  0  0  0  0  0  0  0  0  0  0  0
    0.2986  -53.7034  -27.7754 C   0  0  0  0  0  0  0  0  0  0  0  0
   -0.3629  -52.8789  -30.0436 C   0  0  0  0  0  0  0  0  0  0  0  0
   -0.4249  -52.6392  -28.5312 C   0  0  0  0  0  0  0  0  0  0  0  0
   -1.9029  -52.6020  -28.1014 C   0  0  0  0  0  0  0  0  0  0  0  0
 35 36  1  0  0  0
 36 37  1  0  0  0
 36 34  1  0  0  0
 34  1  1  0  0  0
  1  2  1  0  0  0
  2  3  1  0  0  0
  3  4  2  0  0  0
  3  6  1  0  0  0
  6  7  1  0  0  0
  6  9  1  0  0  0
  9 10  1  0  0  0
  9 13  1  0  0  0
 13 14  1  0  0  0
 14 15  2  0  0  0
 15 16  1  0  0  0
 16 17  2  0  0  0
 17 18  1  0  0  0
 18 19  2  0  0  0
  1 20  1  0  0  0
 20 21  2  0  0  0
 20 22  1  0  0  0
 22 23  1  0  0  0
 23 24  1  0  0  0
 24 25  1  0  0  0
 25 26  2  0  0  0
 26 27  1  0  0  0
 26 28  1  0  0  0
 28 29  2  0  0  0
 28 30  1  0  0  0
 30 31  1  0  0  0
 31 32  2  0  0  0
 19 14  1  0  0  0
 31 24  1  0  0  0
  2  5  1  0  0  0
  7  8  1  0  0  0
 10 11  1  0  0  0
 10 12  1  0  0  0
 30 33  1  0  0  0
M  END
> <minimizedAffinity>
-7.38232

> <CNNscore>
0.8497809768

> <CNNaffinity>
7.1058692932

> <CNN_VS>
6.0384325981

> <CNNaffinity_variance>
0.0567701049

$$$$
[H]Cl.[H]O[C@]([H])(C(=O)N([H])[C@]([H])(C(=O)OC([H])([H])n1c([H])c(F)c(=O)n([H])c1=O)C([H])([H])C([H])(C([H])([H])[H])C([H])([H])[H])[C@]([H])(N([H])[H])C([H])([H])c1c([H])c([H])c([H])c([H])c1[H]


 37 38  0  0  0  0  0  0  0  0999 V2000
    1.4791  -51.6054  -26.2304 C   0  0  0  0  0  0  0  0  0  0  0  0
    2.7961  -51.5562  -25.5830 N   0  0  0  0  0  0  0  0  0  0  0  0
    3.5022  -50.3322  -25.4266 C   0  0  0  0  0  0  0  0  0  0  0  0
    2.9660  -49.2878  -25.8601 O   0  0  0  0  0  0  0  0  0  0  0  0
    3.2539  -52.4197  -25.2178 H   0  0  0  0  0  0  0  0  0  0  0  0
    4.8335  -50.2606  -24.7750 C   0  0  0  0  0  0  0  0  0  0  0  0
    5.7194  -49.6025  -25.6169 O   0  0  0  0  0  0  0  0  0  0  0  0
    5.6488  -48.6298  -25.4735 H   0  0  0  0  0  0  0  0  0  0  0  0
    4.7773  -49.5045  -23.4549 C   0  0  0  0  0  0  0  0  0  0  0  0
    6.0738  -49.1005  -23.0109 N   0  0  0  0  0  0  0  0  0  0  0  0
    6.1080  -48.1492  -22.5983 H   0  0  0  0  0  0  0  0  0  0  0  0
    6.6211  -49.8016  -22.5053 H   0  0  0  0  0  0  0  0  0  0  0  0
    4.1122  -50.4144  -22.4584 C   0  0  0  0  0  0  0  0  0  0  0  0
    3.5606  -49.7025  -21.2873 C   0  0  0  0  0  0  0  0  0  0  0  0
    2.4609  -48.8644  -21.3687 C   0  0  0  0  0  0  0  0  0  0  0  0
    1.9465  -48.1992  -20.2692 C   0  0  0  0  0  0  0  0  0  0  0  0
    2.5332  -48.3638  -19.0491 C   0  0  0  0  0  0  0  0  0  0  0  0
    3.6250  -49.1843  -18.9201 C   0  0  0  0  0  0  0  0  0  0  0  0
    4.1256  -49.8376  -20.0159 C   0  0  0  0  0  0  0  0  0  0  0  0
    0.4665  -52.0701  -25.2507 C   0  0  0  0  0  0  0  0  0  0  0  0
   -0.6739  -51.4874  -25.2870 O   0  0  0  0  0  0  0  0  0  0  0  0
    0.6000  -53.0406  -24.3196 O   0  0  0  0  0  0  0  0  0  0  0  0
   -0.3067  -53.6989  -23.5255 C   0  0  0  0  0  0  0  0  0  0  0  0
   -0.3419  -53.3747  -22.1363 N   0  0  0  0  0  0  0  0  0  0  0  0
    0.3960  -52.4476  -21.5086 C   0  0  0  0  0  0  0  0  0  0  0  0
    0.2946  -52.2208  -20.1302 C   0  0  0  0  0  0  0  0  0  0  0  0
    1.0473  -51.2821  -19.5223 F   0  0  0  0  0  0  0  0  0  0  0  0
   -0.5812  -52.9615  -19.3844 C   0  0  0  0  0  0  0  0  0  0  0  0
   -0.7509  -52.8417  -18.1509 O   0  0  0  0  0  0  0  0  0  0  0  0
   -1.3149  -53.8923  -20.0424 N   0  0  0  0  0  0  0  0  0  0  0  0
   -1.1950  -54.0832  -21.3539 C   0  0  0  0  0  0  0  0  0  0  0  0
   -1.9344  -54.9871  -21.8761 O   0  0  0  0  0  0  0  0  0  0  0  0
   -1.9981  -54.4769  -19.4872 H   0  0  0  0  0  0  0  0  0  0  0  0
    1.5425  -52.3749  -27.5002 C   0  0  0  0  0  0  0  0  0  0  0  0
   -0.1099  -52.7919  -29.3327 C   0  0  0  0  0  0  0  0  0  0  0  0
    0.2504  -53.0281  -27.8619 C   0  0  0  0  0  0  0  0  0  0  0  0
    0.3422  -54.5455  -27.6178 C   0  0  0  0  0  0  0  0  0  0  0  0
 35 36  1  0  0  0
 36 37  1  0  0  0
 36 34  1  0  0  0
 34  1  1  0  0  0
  1  2  1  0  0  0
  2  3  1  0  0  0
  3  4  2  0  0  0
  3  6  1  0  0  0
  6  7  1  0  0  0
  6  9  1  0  0  0
  9 10  1  0  0  0
  9 13  1  0  0  0
 13 14  1  0  0  0
 14 15  2  0  0  0
 15 16  1  0  0  0
 16 17  2  0  0  0
 17 18  1  0  0  0
 18 19  2  0  0  0
  1 20  1  0  0  0
 20 21  2  0  0  0
 20 22  1  0  0  0
 22 23  1  0  0  0
 23 24  1  0  0  0
 24 25  1  0  0  0
 25 26  2  0  0  0
 26 27  1  0  0  0
 26 28  1  0  0  0
 28 29  2  0  0  0
 28 30  1  0  0  0
 30 31  1  0  0  0
 31 32  2  0  0  0
 19 14  1  0  0  0
 31 24  1  0  0  0
  2  5  1  0  0  0
  7  8  1  0  0  0
 10 11  1  0  0  0
 10 12  1  0  0  0
 30 33  1  0  0  0
M  END
> <minimizedAffinity>
-6.69335

> <CNNscore>
0.8048161864

> <CNNaffinity>
6.8721799850

> <CNN_VS>
5.5308418274

> <CNNaffinity_variance>
0.0939690247

$$$$
[H]Cl.[H]O[C@]([H])(C(=O)N([H])[C@]([H])(C(=O)OC([H])([H])n1c([H])c(F)c(=O)n([H])c1=O)C([H])([H])C([H])(C([H])([H])[H])C([H])([H])[H])[C@]([H])(N([H])[H])C([H])([H])c1c([H])c([H])c([H])c([H])c1[H]


 37 38  0  0  0  0  0  0  0  0999 V2000
    3.9548  -51.3999  -21.4005 C   0  0  0  0  0  0  0  0  0  0  0  0
    3.2743  -51.0208  -22.6451 N   0  0  0  0  0  0  0  0  0  0  0  0
    3.5751  -51.6572  -23.8803 C   0  0  0  0  0  0  0  0  0  0  0  0
    4.4443  -52.5577  -23.8782 O   0  0  0  0  0  0  0  0  0  0  0  0
    2.5483  -50.2716  -22.6602 H   0  0  0  0  0  0  0  0  0  0  0  0
    2.8988  -51.2896  -25.1489 C   0  0  0  0  0  0  0  0  0  0  0  0
    3.8370  -51.2465  -26.1710 O   0  0  0  0  0  0  0  0  0  0  0  0
    3.9534  -52.1493  -26.5492 H   0  0  0  0  0  0  0  0  0  0  0  0
    1.8233  -52.2976  -25.5294 C   0  0  0  0  0  0  0  0  0  0  0  0
    2.1651  -53.6258  -25.1291 N   0  0  0  0  0  0  0  0  0  0  0  0
    1.3723  -54.1756  -24.7479 H   0  0  0  0  0  0  0  0  0  0  0  0
    2.7785  -54.1479  -25.7598 H   0  0  0  0  0  0  0  0  0  0  0  0
    1.6415  -52.2007  -27.0196 C   0  0  0  0  0  0  0  0  0  0  0  0
    0.2333  -52.3199  -27.4502 C   0  0  0  0  0  0  0  0  0  0  0  0
   -0.8337  -52.0698  -26.6032 C   0  0  0  0  0  0  0  0  0  0  0  0
   -2.1519  -52.1822  -27.0101 C   0  0  0  0  0  0  0  0  0  0  0  0
   -2.4300  -52.5528  -28.2929 C   0  0  0  0  0  0  0  0  0  0  0  0
   -1.4053  -52.8108  -29.1677 C   0  0  0  0  0  0  0  0  0  0  0  0
   -0.1041  -52.6964  -28.7534 C   0  0  0  0  0  0  0  0  0  0  0  0
    3.0160  -51.2508  -20.2615 C   0  0  0  0  0  0  0  0  0  0  0  0
    3.2929  -51.9150  -19.2014 O   0  0  0  0  0  0  0  0  0  0  0  0
    1.8979  -50.4937  -20.2040 O   0  0  0  0  0  0  0  0  0  0  0  0
    0.5854  -50.7920  -19.9316 C   0  0  0  0  0  0  0  0  0  0  0  0
   -0.0045  -51.9022  -20.6067 N   0  0  0  0  0  0  0  0  0  0  0  0
   -0.1049  -52.0754  -21.9326 C   0  0  0  0  0  0  0  0  0  0  0  0
   -0.7221  -53.2006  -22.4936 C   0  0  0  0  0  0  0  0  0  0  0  0
   -0.8100  -53.3520  -23.8302 F   0  0  0  0  0  0  0  0  0  0  0  0
   -1.2457  -54.1644  -21.6758 C   0  0  0  0  0  0  0  0  0  0  0  0
   -1.8162  -55.2055  -22.0698 O   0  0  0  0  0  0  0  0  0  0  0  0
   -1.1317  -53.9654  -20.3397 N   0  0  0  0  0  0  0  0  0  0  0  0
   -0.5389  -52.8849  -19.8381 C   0  0  0  0  0  0  0  0  0  0  0  0
   -0.4847  -52.7948  -18.5632 O   0  0  0  0  0  0  0  0  0  0  0  0
   -1.5289  -54.6964  -19.6879 H   0  0  0  0  0  0  0  0  0  0  0  0
    5.2475  -50.6793  -21.2639 C   0  0  0  0  0  0  0  0  0  0  0  0
    5.8589  -48.9520  -19.5596 C   0  0  0  0  0  0  0  0  0  0  0  0
    5.0901  -49.2540  -20.8505 C   0  0  0  0  0  0  0  0  0  0  0  0
    5.6127  -48.3241  -21.9607 C   0  0  0  0  0  0  0  0  0  0  0  0
 35 36  1  0  0  0
 36 37  1  0  0  0
 36 34  1  0  0  0
 34  1  1  0  0  0
  1  2  1  0  0  0
  2  3  1  0  0  0
  3  4  2  0  0  0
  3  6  1  0  0  0
  6  7  1  0  0  0
  6  9  1  0  0  0
  9 10  1  0  0  0
  9 13  1  0  0  0
 13 14  1  0  0  0
 14 15  2  0  0  0
 15 16  1  0  0  0
 16 17  2  0  0  0
 17 18  1  0  0  0
 18 19  2  0  0  0
  1 20  1  0  0  0
 20 21  2  0  0  0
 20 22  1  0  0  0
 22 23  1  0  0  0
 23 24  1  0  0  0
 24 25  1  0  0  0
 25 26  2  0  0  0
 26 27  1  0  0  0
 26 28  1  0  0  0
 28 29  2  0  0  0
 28 30  1  0  0  0
 30 31  1  0  0  0
 31 32  2  0  0  0
 19 14  1  0  0  0
 31 24  1  0  0  0
  2  5  1  0  0  0
  7  8  1  0  0  0
 10 11  1  0  0  0
 10 12  1  0  0  0
 30 33  1  0  0  0
M  END
> <minimizedAffinity>
-7.79795

> <CNNscore>
0.7741133571

> <CNNaffinity>
6.9895439148

> <CNN_VS>
5.4106993675

> <CNNaffinity_variance>
0.1344472617

$$$$
[H]Cl.[H]O[C@]([H])(C(=O)N([H])[C@]([H])(C(=O)OC([H])([H])n1c([H])c(F)c(=O)n([H])c1=O)C([H])([H])C([H])(C([H])([H])[H])C([H])([H])[H])[C@]([H])(N([H])[H])C([H])([H])c1c([H])c([H])c([H])c([H])c1[H]


 37 38  0  0  0  0  0  0  0  0999 V2000
    1.1837  -51.4242  -25.5415 C   0  0  0  0  0  0  0  0  0  0  0  0
    2.4349  -50.6599  -25.4633 N   0  0  0  0  0  0  0  0  0  0  0  0
    2.7455  -49.8560  -24.3326 C   0  0  0  0  0  0  0  0  0  0  0  0
    1.9154  -49.8167  -23.3968 O   0  0  0  0  0  0  0  0  0  0  0  0
    3.1348  -50.6840  -26.2367 H   0  0  0  0  0  0  0  0  0  0  0  0
    4.0043  -49.0765  -24.2335 C   0  0  0  0  0  0  0  0  0  0  0  0
    4.8249  -49.6539  -23.2743 O   0  0  0  0  0  0  0  0  0  0  0  0
    5.3577  -50.3732  -23.6869 H   0  0  0  0  0  0  0  0  0  0  0  0
    4.7591  -49.0504  -25.5553 C   0  0  0  0  0  0  0  0  0  0  0  0
    5.9744  -49.7992  -25.4956 N   0  0  0  0  0  0  0  0  0  0  0  0
    6.1756  -50.3575  -26.3465 H   0  0  0  0  0  0  0  0  0  0  0  0
    6.7871  -49.3178  -25.1026 H   0  0  0  0  0  0  0  0  0  0  0  0
    5.0178  -47.6049  -25.8820 C   0  0  0  0  0  0  0  0  0  0  0  0
    4.0074  -47.0148  -26.7838 C   0  0  0  0  0  0  0  0  0  0  0  0
    2.8986  -46.3266  -26.3198 C   0  0  0  0  0  0  0  0  0  0  0  0
    1.9541  -45.7747  -27.1678 C   0  0  0  0  0  0  0  0  0  0  0  0
    2.1051  -45.9038  -28.5171 C   0  0  0  0  0  0  0  0  0  0  0  0
    3.1879  -46.5773  -29.0229 C   0  0  0  0  0  0  0  0  0  0  0  0
    4.1166  -47.1196  -28.1735 C   0  0  0  0  0  0  0  0  0  0  0  0
    1.1530  -52.4303  -24.4516 C   0  0  0  0  0  0  0  0  0  0  0  0
    2.1745  -53.1973  -24.3525 O   0  0  0  0  0  0  0  0  0  0  0  0
    0.1739  -52.6370  -23.5432 O   0  0  0  0  0  0  0  0  0  0  0  0
   -0.0580  -53.6435  -22.6381 C   0  0  0  0  0  0  0  0  0  0  0  0
   -0.2058  -53.2893  -21.2638 N   0  0  0  0  0  0  0  0  0  0  0  0
    0.6044  -52.4975  -20.5464 C   0  0  0  0  0  0  0  0  0  0  0  0
    0.3757  -52.2273  -19.1912 C   0  0  0  0  0  0  0  0  0  0  0  0
    1.2050  -51.4272  -18.4917 F   0  0  0  0  0  0  0  0  0  0  0  0
   -0.7057  -52.7820  -18.5630 C   0  0  0  0  0  0  0  0  0  0  0  0
   -1.0026  -52.6078  -17.3605 O   0  0  0  0  0  0  0  0  0  0  0  0
   -1.5088  -53.5788  -19.3100 N   0  0  0  0  0  0  0  0  0  0  0  0
   -1.2638  -53.8156  -20.5963 C   0  0  0  0  0  0  0  0  0  0  0  0
   -2.0844  -54.5820  -21.2092 O   0  0  0  0  0  0  0  0  0  0  0  0
   -2.3504  -54.0188  -18.8463 H   0  0  0  0  0  0  0  0  0  0  0  0
    0.9749  -51.9583  -26.9126 C   0  0  0  0  0  0  0  0  0  0  0  0
   -1.2803  -52.4969  -27.8539 C   0  0  0  0  0  0  0  0  0  0  0  0
   -0.1095  -52.9805  -26.9912 C   0  0  0  0  0  0  0  0  0  0  0  0
    0.4404  -54.2843  -27.5981 C   0  0  0  0  0  0  0  0  0  0  0  0
 35 36  1  0  0  0
 36 37  1  0  0  0
 36 34  1  0  0  0
 34  1  1  0  0  0
  1  2  1  0  0  0
  2  3  1  0  0  0
  3  4  2  0  0  0
  3  6  1  0  0  0
  6  7  1  0  0  0
  6  9  1  0  0  0
  9 10  1  0  0  0
  9 13  1  0  0  0
 13 14  1  0  0  0
 14 15  2  0  0  0
 15 16  1  0  0  0
 16 17  2  0  0  0
 17 18  1  0  0  0
 18 19  2  0  0  0
  1 20  1  0  0  0
 20 21  2  0  0  0
 20 22  1  0  0  0
 22 23  1  0  0  0
 23 24  1  0  0  0
 24 25  1  0  0  0
 25 26  2  0  0  0
 26 27  1  0  0  0
 26 28  1  0  0  0
 28 29  2  0  0  0
 28 30  1  0  0  0
 30 31  1  0  0  0
 31 32  2  0  0  0
 19 14  1  0  0  0
 31 24  1  0  0  0
  2  5  1  0  0  0
  7  8  1  0  0  0
 10 11  1  0  0  0
 10 12  1  0  0  0
 30 33  1  0  0  0
M  END
> <minimizedAffinity>
-6.89467

> <CNNscore>
0.7553626299

> <CNNaffinity>
6.6584029198

> <CNN_VS>
5.0295085907

> <CNNaffinity_variance>
0.1799028218

$$$$
[H]Cl.[H]O[C@]([H])(C(=O)N([H])[C@]([H])(C(=O)OC([H])([H])n1c([H])c(F)c(=O)n([H])c1=O)C([H])([H])C([H])(C([H])([H])[H])C([H])([H])[H])[C@]([H])(N([H])[H])C([H])([H])c1c([H])c([H])c([H])c([H])c1[H]


 37 38  0  0  0  0  0  0  0  0999 V2000
    1.6925  -52.0400  -21.4438 C   0  0  0  0  0  0  0  0  0  0  0  0
    2.8487  -51.1454  -21.5813 N   0  0  0  0  0  0  0  0  0  0  0  0
    3.8293  -51.0355  -20.5578 C   0  0  0  0  0  0  0  0  0  0  0  0
    3.6788  -51.7282  -19.5263 O   0  0  0  0  0  0  0  0  0  0  0  0
    2.9854  -50.5626  -22.4358 H   0  0  0  0  0  0  0  0  0  0  0  0
    5.0051  -50.1381  -20.6770 C   0  0  0  0  0  0  0  0  0  0  0  0
    5.1780  -49.7861  -22.0085 O   0  0  0  0  0  0  0  0  0  0  0  0
    4.6176  -49.0024  -22.2171 H   0  0  0  0  0  0  0  0  0  0  0  0
    4.8284  -48.8630  -19.8644 C   0  0  0  0  0  0  0  0  0  0  0  0
    5.0215  -49.0849  -18.4663 N   0  0  0  0  0  0  0  0  0  0  0  0
    5.5448  -48.3318  -17.9814 H   0  0  0  0  0  0  0  0  0  0  0  0
    4.2167  -49.4441  -17.9467 H   0  0  0  0  0  0  0  0  0  0  0  0
    3.4449  -48.3483  -20.1548 C   0  0  0  0  0  0  0  0  0  0  0  0
    3.4219  -47.2384  -21.1295 C   0  0  0  0  0  0  0  0  0  0  0  0
    4.1127  -46.0540  -20.9337 C   0  0  0  0  0  0  0  0  0  0  0  0
    4.0891  -45.0162  -21.8494 C   0  0  0  0  0  0  0  0  0  0  0  0
    3.3620  -45.1477  -22.9957 C   0  0  0  0  0  0  0  0  0  0  0  0
    2.6614  -46.3031  -23.2326 C   0  0  0  0  0  0  0  0  0  0  0  0
    2.6922  -47.3238  -22.3187 C   0  0  0  0  0  0  0  0  0  0  0  0
    1.2750  -52.5139  -22.7863 C   0  0  0  0  0  0  0  0  0  0  0  0
    0.2446  -53.2741  -22.8295 O   0  0  0  0  0  0  0  0  0  0  0  0
    1.8511  -52.2385  -23.9775 O   0  0  0  0  0  0  0  0  0  0  0  0
    2.1796  -53.0232  -25.0555 C   0  0  0  0  0  0  0  0  0  0  0  0
    1.3673  -52.9308  -26.2251 N   0  0  0  0  0  0  0  0  0  0  0  0
    0.0492  -52.6884  -26.2710 C   0  0  0  0  0  0  0  0  0  0  0  0
   -0.6583  -52.6355  -27.4787 C   0  0  0  0  0  0  0  0  0  0  0  0
   -1.9835  -52.3896  -27.4984 F   0  0  0  0  0  0  0  0  0  0  0  0
    0.0021  -52.8359  -28.6600 C   0  0  0  0  0  0  0  0  0  0  0  0
   -0.5305  -52.8105  -29.7915 O   0  0  0  0  0  0  0  0  0  0  0  0
    1.3337  -53.0793  -28.5864 N   0  0  0  0  0  0  0  0  0  0  0  0
    1.9769  -53.1230  -27.4224 C   0  0  0  0  0  0  0  0  0  0  0  0
    3.2333  -53.3600  -27.4650 O   0  0  0  0  0  0  0  0  0  0  0  0
    1.8652  -53.2374  -29.4860 H   0  0  0  0  0  0  0  0  0  0  0  0
    0.6254  -51.4035  -20.6285 C   0  0  0  0  0  0  0  0  0  0  0  0
    0.1462  -51.0690  -18.1952 C   0  0  0  0  0  0  0  0  0  0  0  0
    0.3975  -52.0810  -19.3185 C   0  0  0  0  0  0  0  0  0  0  0  0
   -0.8210  -53.0171  -19.4160 C   0  0  0  0  0  0  0  0  0  0  0  0
 35 36  1  0  0  0
 36 37  1  0  0  0
 36 34  1  0  0  0
 34  1  1  0  0  0
  1  2  1  0  0  0
  2  3  1  0  0  0
  3  4  2  0  0  0
  3  6  1  0  0  0
  6  7  1  0  0  0
  6  9  1  0  0  0
  9 10  1  0  0  0
  9 13  1  0  0  0
 13 14  1  0  0  0
 14 15  2  0  0  0
 15 16  1  0  0  0
 16 17  2  0  0  0
 17 18  1  0  0  0
 18 19  2  0  0  0
  1 20  1  0  0  0
 20 21  2  0  0  0
 20 22  1  0  0  0
 22 23  1  0  0  0
 23 24  1  0  0  0
 24 25  1  0  0  0
 25 26  2  0  0  0
 26 27  1  0  0  0
 26 28  1  0  0  0
 28 29  2  0  0  0
 28 30  1  0  0  0
 30 31  1  0  0  0
 31 32  2  0  0  0
 19 14  1  0  0  0
 31 24  1  0  0  0
  2  5  1  0  0  0
  7  8  1  0  0  0
 10 11  1  0  0  0
 10 12  1  0  0  0
 30 33  1  0  0  0
M  END
> <minimizedAffinity>
-6.87208

> <CNNscore>
0.7494651675

> <CNNaffinity>
6.6076965332

> <CNN_VS>
4.9522385597

> <CNNaffinity_variance>
0.1439798623

$$$$
[H]Cl.[H]O[C@]([H])(C(=O)N([H])[C@]([H])(C(=O)OC([H])([H])n1c([H])c(F)c(=O)n([H])c1=O)C([H])([H])C([H])(C([H])([H])[H])C([H])([H])[H])[C@]([H])(N([H])[H])C([H])([H])c1c([H])c([H])c([H])c([H])c1[H]


 37 38  0  0  0  0  0  0  0  0999 V2000
    2.4585  -51.3244  -21.1475 C   0  0  0  0  0  0  0  0  0  0  0  0
    2.4909  -50.9359  -22.5631 N   0  0  0  0  0  0  0  0  0  0  0  0
    3.5861  -51.2776  -23.4028 C   0  0  0  0  0  0  0  0  0  0  0  0
    4.5310  -51.9246  -22.8978 O   0  0  0  0  0  0  0  0  0  0  0  0
    1.7098  -50.3963  -22.9958 H   0  0  0  0  0  0  0  0  0  0  0  0
    3.6383  -50.8953  -24.8356 C   0  0  0  0  0  0  0  0  0  0  0  0
    2.3740  -50.4979  -25.2487 O   0  0  0  0  0  0  0  0  0  0  0  0
    2.2472  -49.5415  -25.0464 H   0  0  0  0  0  0  0  0  0  0  0  0
    4.6045  -49.7445  -25.0792 C   0  0  0  0  0  0  0  0  0  0  0  0
    5.9677  -50.1710  -25.0489 N   0  0  0  0  0  0  0  0  0  0  0  0
    6.5698  -49.7330  -25.7713 H   0  0  0  0  0  0  0  0  0  0  0  0
    6.4009  -50.2466  -24.1251 H   0  0  0  0  0  0  0  0  0  0  0  0
    4.3271  -48.7101  -24.0227 C   0  0  0  0  0  0  0  0  0  0  0  0
    3.6298  -47.5140  -24.5380 C   0  0  0  0  0  0  0  0  0  0  0  0
    3.4634  -47.2675  -25.8908 C   0  0  0  0  0  0  0  0  0  0  0  0
    2.8092  -46.1459  -26.3701 C   0  0  0  0  0  0  0  0  0  0  0  0
    2.3016  -45.2363  -25.4897 C   0  0  0  0  0  0  0  0  0  0  0  0
    2.4425  -45.4384  -24.1402 C   0  0  0  0  0  0  0  0  0  0  0  0
    3.0922  -46.5526  -23.6773 C   0  0  0  0  0  0  0  0  0  0  0  0
    1.1970  -52.0530  -20.8662 C   0  0  0  0  0  0  0  0  0  0  0  0
    1.2363  -52.9225  -19.9261 O   0  0  0  0  0  0  0  0  0  0  0  0
    0.0031  -51.9094  -21.4830 O   0  0  0  0  0  0  0  0  0  0  0  0
   -0.9033  -52.8148  -21.9777 C   0  0  0  0  0  0  0  0  0  0  0  0
   -0.5895  -53.4782  -23.2014 N   0  0  0  0  0  0  0  0  0  0  0  0
    0.1466  -52.9939  -24.2122 C   0  0  0  0  0  0  0  0  0  0  0  0
    0.3802  -53.7262  -25.3831 C   0  0  0  0  0  0  0  0  0  0  0  0
    1.1244  -53.2172  -26.3852 F   0  0  0  0  0  0  0  0  0  0  0  0
   -0.1535  -54.9789  -25.5164 C   0  0  0  0  0  0  0  0  0  0  0  0
   -0.0081  -55.7167  -26.5160 O   0  0  0  0  0  0  0  0  0  0  0  0
   -0.8939  -55.4452  -24.4809 N   0  0  0  0  0  0  0  0  0  0  0  0
   -1.0970  -54.7240  -23.3813 C   0  0  0  0  0  0  0  0  0  0  0  0
   -1.8108  -55.2580  -22.4638 O   0  0  0  0  0  0  0  0  0  0  0  0
   -1.3166  -56.4105  -24.5611 H   0  0  0  0  0  0  0  0  0  0  0  0
    2.7322  -50.1553  -20.2718 C   0  0  0  0  0  0  0  0  0  0  0  0
    0.9697  -48.5157  -20.9558 C   0  0  0  0  0  0  0  0  0  0  0  0
    2.4665  -48.8445  -20.9337 C   0  0  0  0  0  0  0  0  0  0  0  0
    3.2041  -47.7189  -20.1857 C   0  0  0  0  0  0  0  0  0  0  0  0
 35 36  1  0  0  0
 36 37  1  0  0  0
 36 34  1  0  0  0
 34  1  1  0  0  0
  1  2  1  0  0  0
  2  3  1  0  0  0
  3  4  2  0  0  0
  3  6  1  0  0  0
  6  7  1  0  0  0
  6  9  1  0  0  0
  9 10  1  0  0  0
  9 13  1  0  0  0
 13 14  1  0  0  0
 14 15  2  0  0  0
 15 16  1  0  0  0
 16 17  2  0  0  0
 17 18  1  0  0  0
 18 19  2  0  0  0
  1 20  1  0  0  0
 20 21  2  0  0  0
 20 22  1  0  0  0
 22 23  1  0  0  0
 23 24  1  0  0  0
 24 25  1  0  0  0
 25 26  2  0  0  0
 26 27  1  0  0  0
 26 28  1  0  0  0
 28 29  2  0  0  0
 28 30  1  0  0  0
 30 31  1  0  0  0
 31 32  2  0  0  0
 19 14  1  0  0  0
 31 24  1  0  0  0
  2  5  1  0  0  0
  7  8  1  0  0  0
 10 11  1  0  0  0
 10 12  1  0  0  0
 30 33  1  0  0  0
M  END
> <minimizedAffinity>
-6.64670

> <CNNscore>
0.6163714528

> <CNNaffinity>
6.4721055031

> <CNN_VS>
3.9892210960

> <CNNaffinity_variance>
0.1403897405

$$$$
[H]Cl.[H]O[C@]([H])(C(=O)N([H])[C@]([H])(C(=O)OC([H])([H])n1c([H])c(F)c(=O)n([H])c1=O)C([H])([H])C([H])(C([H])([H])[H])C([H])([H])[H])[C@]([H])(N([H])[H])C([H])([H])c1c([H])c([H])c([H])c([H])c1[H]


 37 38  0  0  0  0  0  0  0  0999 V2000
    0.1623  -53.0642  -26.0286 C   0  0  0  0  0  0  0  0  0  0  0  0
    1.4781  -52.6382  -25.5356 N   0  0  0  0  0  0  0  0  0  0  0  0
    1.6079  -51.6434  -24.5282 C   0  0  0  0  0  0  0  0  0  0  0  0
    0.5603  -51.1355  -24.0688 O   0  0  0  0  0  0  0  0  0  0  0  0
    2.3587  -53.0534  -25.9105 H   0  0  0  0  0  0  0  0  0  0  0  0
    2.9278  -51.1991  -24.0157 C   0  0  0  0  0  0  0  0  0  0  0  0
    3.4038  -52.1346  -23.1075 O   0  0  0  0  0  0  0  0  0  0  0  0
    3.8837  -52.8475  -23.5904 H   0  0  0  0  0  0  0  0  0  0  0  0
    3.9500  -51.0558  -25.1346 C   0  0  0  0  0  0  0  0  0  0  0  0
    4.6907  -52.2594  -25.3438 N   0  0  0  0  0  0  0  0  0  0  0  0
    4.8659  -52.4867  -26.3408 H   0  0  0  0  0  0  0  0  0  0  0  0
    5.4920  -52.4142  -24.7268 H   0  0  0  0  0  0  0  0  0  0  0  0
    4.8519  -49.9120  -24.7584 C   0  0  0  0  0  0  0  0  0  0  0  0
    4.6955  -48.7279  -25.6279 C   0  0  0  0  0  0  0  0  0  0  0  0
    5.5316  -47.6263  -25.5523 C   0  0  0  0  0  0  0  0  0  0  0  0
    5.3823  -46.5187  -26.3689 C   0  0  0  0  0  0  0  0  0  0  0  0
    4.3773  -46.4937  -27.2905 C   0  0  0  0  0  0  0  0  0  0  0  0
    3.5242  -47.5623  -27.4015 C   0  0  0  0  0  0  0  0  0  0  0  0
    3.6818  -48.6535  -26.5875 C   0  0  0  0  0  0  0  0  0  0  0  0
   -0.3705  -54.1327  -25.1479 C   0  0  0  0  0  0  0  0  0  0  0  0
   -0.3115  -55.3296  -25.6010 O   0  0  0  0  0  0  0  0  0  0  0  0
   -0.9125  -53.9974  -23.9172 O   0  0  0  0  0  0  0  0  0  0  0  0
   -0.7298  -54.6806  -22.7400 C   0  0  0  0  0  0  0  0  0  0  0  0
   -0.4128  -53.9282  -21.5697 N   0  0  0  0  0  0  0  0  0  0  0  0
    0.7462  -53.3095  -21.3015 C   0  0  0  0  0  0  0  0  0  0  0  0
    0.9594  -52.6087  -20.1077 C   0  0  0  0  0  0  0  0  0  0  0  0
    2.1338  -51.9945  -19.8617 F   0  0  0  0  0  0  0  0  0  0  0  0
   -0.0377  -52.5437  -19.1731 C   0  0  0  0  0  0  0  0  0  0  0  0
    0.0459  -51.9469  -18.0770 O   0  0  0  0  0  0  0  0  0  0  0  0
   -1.1992  -53.1776  -19.4680 N   0  0  0  0  0  0  0  0  0  0  0  0
   -1.3701  -53.8351  -20.6121 C   0  0  0  0  0  0  0  0  0  0  0  0
   -2.5047  -54.3983  -20.7909 O   0  0  0  0  0  0  0  0  0  0  0  0
   -1.9839  -53.1414  -18.7611 H   0  0  0  0  0  0  0  0  0  0  0  0
    0.2223  -53.3973  -27.4758 C   0  0  0  0  0  0  0  0  0  0  0  0
   -0.4472  -52.8198  -29.8168 C   0  0  0  0  0  0  0  0  0  0  0  0
   -0.5803  -52.4735  -28.3298 C   0  0  0  0  0  0  0  0  0  0  0  0
   -2.0674  -52.5554  -27.9391 C   0  0  0  0  0  0  0  0  0  0  0  0
 35 36  1  0  0  0
 36 37  1  0  0  0
 36 34  1  0  0  0
 34  1  1  0  0  0
  1  2  1  0  0  0
  2  3  1  0  0  0
  3  4  2  0  0  0
  3  6  1  0  0  0
  6  7  1  0  0  0
  6  9  1  0  0  0
  9 10  1  0  0  0
  9 13  1  0  0  0
 13 14  1  0  0  0
 14 15  2  0  0  0
 15 16  1  0  0  0
 16 17  2  0  0  0
 17 18  1  0  0  0
 18 19  2  0  0  0
  1 20  1  0  0  0
 20 21  2  0  0  0
 20 22  1  0  0  0
 22 23  1  0  0  0
 23 24  1  0  0  0
 24 25  1  0  0  0
 25 26  2  0  0  0
 26 27  1  0  0  0
 26 28  1  0  0  0
 28 29  2  0  0  0
 28 30  1  0  0  0
 30 31  1  0  0  0
 31 32  2  0  0  0
 19 14  1  0  0  0
 31 24  1  0  0  0
  2  5  1  0  0  0
  7  8  1  0  0  0
 10 11  1  0  0  0
 10 12  1  0  0  0
 30 33  1  0  0  0
M  END
> <minimizedAffinity>
-6.80258

> <CNNscore>
0.6154105067

> <CNNaffinity>
6.5671324730

> <CNN_VS>
4.0414824486

> <CNNaffinity_variance>
0.1032849774

$$$$
[H]Cl.[H]O[C@]([H])(C(=O)N([H])[C@]([H])(C(=O)OC([H])([H])n1c([H])c(F)c(=O)n([H])c1=O)C([H])([H])C([H])(C([H])([H])[H])C([H])([H])[H])[C@]([H])(N([H])[H])C([H])([H])c1c([H])c([H])c([H])c([H])c1[H]


 37 38  0  0  0  0  0  0  0  0999 V2000
    1.2472  -50.9950  -18.8099 C   0  0  0  0  0  0  0  0  0  0  0  0
    1.1877  -49.8275  -19.6983 N   0  0  0  0  0  0  0  0  0  0  0  0
    2.3167  -48.9868  -19.8975 C   0  0  0  0  0  0  0  0  0  0  0  0
    3.3728  -49.2713  -19.2891 O   0  0  0  0  0  0  0  0  0  0  0  0
    0.3134  -49.5796  -20.2108 H   0  0  0  0  0  0  0  0  0  0  0  0
    2.2779  -47.8028  -20.7912 C   0  0  0  0  0  0  0  0  0  0  0  0
    3.3751  -46.9947  -20.5269 O   0  0  0  0  0  0  0  0  0  0  0  0
    4.1483  -47.3075  -21.0523 H   0  0  0  0  0  0  0  0  0  0  0  0
    2.3200  -48.2009  -22.2599 C   0  0  0  0  0  0  0  0  0  0  0  0
    2.4450  -49.6138  -22.4309 N   0  0  0  0  0  0  0  0  0  0  0  0
    1.8697  -50.0046  -23.2007 H   0  0  0  0  0  0  0  0  0  0  0  0
    3.3915  -49.9977  -22.3722 H   0  0  0  0  0  0  0  0  0  0  0  0
    3.4780  -47.4663  -22.8785 C   0  0  0  0  0  0  0  0  0  0  0  0
    3.2161  -47.0094  -24.2588 C   0  0  0  0  0  0  0  0  0  0  0  0
    3.4788  -47.7927  -25.3705 C   0  0  0  0  0  0  0  0  0  0  0  0
    3.2318  -47.3615  -26.6624 C   0  0  0  0  0  0  0  0  0  0  0  0
    2.7090  -46.1187  -26.8677 C   0  0  0  0  0  0  0  0  0  0  0  0
    2.4326  -45.3073  -25.7967 C   0  0  0  0  0  0  0  0  0  0  0  0
    2.6814  -45.7450  -24.5221 C   0  0  0  0  0  0  0  0  0  0  0  0
    1.5014  -52.2142  -19.6162 C   0  0  0  0  0  0  0  0  0  0  0  0
    2.7286  -52.5065  -19.8397 O   0  0  0  0  0  0  0  0  0  0  0  0
    0.5909  -53.0610  -20.1458 O   0  0  0  0  0  0  0  0  0  0  0  0
   -0.4857  -52.8688  -20.9764 C   0  0  0  0  0  0  0  0  0  0  0  0
   -0.3543  -53.2515  -22.3448 N   0  0  0  0  0  0  0  0  0  0  0  0
    0.3796  -52.6375  -23.2841 C   0  0  0  0  0  0  0  0  0  0  0  0
    0.4248  -53.0888  -24.6092 C   0  0  0  0  0  0  0  0  0  0  0  0
    1.1710  -52.4541  -25.5353 F   0  0  0  0  0  0  0  0  0  0  0  0
   -0.2983  -54.1913  -24.9744 C   0  0  0  0  0  0  0  0  0  0  0  0
   -0.3298  -54.6778  -26.1263 O   0  0  0  0  0  0  0  0  0  0  0  0
   -1.0321  -54.7935  -24.0066 N   0  0  0  0  0  0  0  0  0  0  0  0
   -1.0536  -54.3396  -22.7560 C   0  0  0  0  0  0  0  0  0  0  0  0
   -1.7790  -54.9818  -21.9206 O   0  0  0  0  0  0  0  0  0  0  0  0
   -1.5993  -55.6470  -24.2651 H   0  0  0  0  0  0  0  0  0  0  0  0
    0.0535  -51.0486  -17.9262 C   0  0  0  0  0  0  0  0  0  0  0  0
    1.8375  -50.6270  -16.2227 C   0  0  0  0  0  0  0  0  0  0  0  0
    0.3348  -50.6215  -16.5242 C   0  0  0  0  0  0  0  0  0  0  0  0
   -0.2065  -49.1993  -16.2895 C   0  0  0  0  0  0  0  0  0  0  0  0
 35 36  1  0  0  0
 36 37  1  0  0  0
 36 34  1  0  0  0
 34  1  1  0  0  0
  1  2  1  0  0  0
  2  3  1  0  0  0
  3  4  2  0  0  0
  3  6  1  0  0  0
  6  7  1  0  0  0
  6  9  1  0  0  0
  9 10  1  0  0  0
  9 13  1  0  0  0
 13 14  1  0  0  0
 14 15  2  0  0  0
 15 16  1  0  0  0
 16 17  2  0  0  0
 17 18  1  0  0  0
 18 19  2  0  0  0
  1 20  1  0  0  0
 20 21  2  0  0  0
 20 22  1  0  0  0
 22 23  1  0  0  0
 23 24  1  0  0  0
 24 25  1  0  0  0
 25 26  2  0  0  0
 26 27  1  0  0  0
 26 28  1  0  0  0
 28 29  2  0  0  0
 28 30  1  0  0  0
 30 31  1  0  0  0
 31 32  2  0  0  0
 19 14  1  0  0  0
 31 24  1  0  0  0
  2  5  1  0  0  0
  7  8  1  0  0  0
 10 11  1  0  0  0
 10 12  1  0  0  0
 30 33  1  0  0  0
M  END
> <minimizedAffinity>
-6.48080

> <CNNscore>
0.5548911691

> <CNNaffinity>
6.4390616417

> <CNN_VS>
3.5729784966

> <CNNaffinity_variance>
0.2806816697

$$$$
[H]Cl.[H]O[C@]([H])(C(=O)N([H])[C@]([H])(C(=O)OC([H])([H])n1c([H])c(F)c(=O)n([H])c1=O)C([H])([H])C([H])(C([H])([H])[H])C([H])([H])[H])[C@]([H])(N([H])[H])C([H])([H])c1c([H])c([H])c([H])c([H])c1[H]


 37 38  0  0  0  0  0  0  0  0999 V2000
    3.9907  -50.3693  -20.5307 C   0  0  0  0  0  0  0  0  0  0  0  0
    3.1829  -50.4637  -21.7531 N   0  0  0  0  0  0  0  0  0  0  0  0
    3.4534  -51.4415  -22.7491 C   0  0  0  0  0  0  0  0  0  0  0  0
    4.4081  -52.2269  -22.5541 O   0  0  0  0  0  0  0  0  0  0  0  0
    2.3848  -49.8149  -21.9276 H   0  0  0  0  0  0  0  0  0  0  0  0
    2.6491  -51.5543  -23.9910 C   0  0  0  0  0  0  0  0  0  0  0  0
    1.5655  -50.6901  -23.9136 O   0  0  0  0  0  0  0  0  0  0  0  0
    1.8357  -49.7949  -24.2254 H   0  0  0  0  0  0  0  0  0  0  0  0
    3.4618  -51.1924  -25.2262 C   0  0  0  0  0  0  0  0  0  0  0  0
    4.1931  -52.3092  -25.7352 N   0  0  0  0  0  0  0  0  0  0  0  0
    4.2035  -52.3786  -26.7702 H   0  0  0  0  0  0  0  0  0  0  0  0
    5.0918  -52.5072  -25.2881 H   0  0  0  0  0  0  0  0  0  0  0  0
    4.3788  -50.0669  -24.8314 C   0  0  0  0  0  0  0  0  0  0  0  0
    3.8722  -48.7328  -25.2135 C   0  0  0  0  0  0  0  0  0  0  0  0
    3.7492  -47.6903  -24.3099 C   0  0  0  0  0  0  0  0  0  0  0  0
    3.2745  -46.4414  -24.6715 C   0  0  0  0  0  0  0  0  0  0  0  0
    2.9086  -46.2100  -25.9648 C   0  0  0  0  0  0  0  0  0  0  0  0
    3.0130  -47.2128  -26.8951 C   0  0  0  0  0  0  0  0  0  0  0  0
    3.4844  -48.4454  -26.5254 C   0  0  0  0  0  0  0  0  0  0  0  0
    3.1259  -50.6111  -19.3497 C   0  0  0  0  0  0  0  0  0  0  0  0
    3.4870  -51.5530  -18.5597 O   0  0  0  0  0  0  0  0  0  0  0  0
    1.9973  -49.9540  -19.0017 O   0  0  0  0  0  0  0  0  0  0  0  0
    0.7536  -50.3845  -18.6097 C   0  0  0  0  0  0  0  0  0  0  0  0
    0.1301  -51.4176  -19.3713 N   0  0  0  0  0  0  0  0  0  0  0  0
    0.0529  -51.4957  -20.7077 C   0  0  0  0  0  0  0  0  0  0  0  0
   -0.6012  -52.5503  -21.3572 C   0  0  0  0  0  0  0  0  0  0  0  0
   -0.6647  -52.6065  -22.7025 F   0  0  0  0  0  0  0  0  0  0  0  0
   -1.1866  -53.5419  -20.6183 C   0  0  0  0  0  0  0  0  0  0  0  0
   -1.7942  -54.5261  -21.0945 O   0  0  0  0  0  0  0  0  0  0  0  0
   -1.0949  -53.4395  -19.2696 N   0  0  0  0  0  0  0  0  0  0  0  0
   -0.4659  -52.4242  -18.6831 C   0  0  0  0  0  0  0  0  0  0  0  0
   -0.4374  -52.4235  -17.4042 O   0  0  0  0  0  0  0  0  0  0  0  0
   -1.5398  -54.1936  -18.6779 H   0  0  0  0  0  0  0  0  0  0  0  0
    4.7681  -49.1028  -20.5070 C   0  0  0  0  0  0  0  0  0  0  0  0
    6.4765  -47.6566  -21.6259 C   0  0  0  0  0  0  0  0  0  0  0  0
    5.8477  -49.0514  -21.5360 C   0  0  0  0  0  0  0  0  0  0  0  0
    6.9531  -50.0654  -21.1890 C   0  0  0  0  0  0  0  0  0  0  0  0
 35 36  1  0  0  0
 36 37  1  0  0  0
 36 34  1  0  0  0
 34  1  1  0  0  0
  1  2  1  0  0  0
  2  3  1  0  0  0
  3  4  2  0  0  0
  3  6  1  0  0  0
  6  7  1  0  0  0
  6  9  1  0  0  0
  9 10  1  0  0  0
  9 13  1  0  0  0
 13 14  1  0  0  0
 14 15  2  0  0  0
 15 16  1  0  0  0
 16 17  2  0  0  0
 17 18  1  0  0  0
 18 19  2  0  0  0
  1 20  1  0  0  0
 20 21  2  0  0  0
 20 22  1  0  0  0
 22 23  1  0  0  0
 23 24  1  0  0  0
 24 25  1  0  0  0
 25 26  2  0  0  0
 26 27  1  0  0  0
 26 28  1  0  0  0
 28 29  2  0  0  0
 28 30  1  0  0  0
 30 31  1  0  0  0
 31 32  2  0  0  0
 19 14  1  0  0  0
 31 24  1  0  0  0
  2  5  1  0  0  0
  7  8  1  0  0  0
 10 11  1  0  0  0
 10 12  1  0  0  0
 30 33  1  0  0  0
M  END
> <minimizedAffinity>
-6.18864

> <CNNscore>
0.5527985096

> <CNNaffinity>
6.0940284729

> <CNN_VS>
3.3687698841

> <CNNaffinity_variance>
0.1879963130

$$$$
