[H]c1nc(N([H])[C@]2([H])C([H])([H])C([H])([H])[C@@]([H])(N([H])[H])C([H])([H])C2([H])[H])c2c([H])c(OC([H])([H])[H])c(OC([H])([H])[H])c([H])c2n1


 25 27  0  0  0  0  0  0  0  0999 V2000
   -0.2375  -52.4129  -19.8837 C   0  0  0  0  0  0  0  0  0  0  0  0
   -0.7771  -53.5926  -20.3731 C   0  0  0  0  0  0  0  0  0  0  0  0
   -0.8021  -53.8616  -21.7357 C   0  0  0  0  0  0  0  0  0  0  0  0
   -1.3343  -55.0216  -22.1966 N   0  0  0  0  0  0  0  0  0  0  0  0
   -1.3517  -55.2676  -23.5133 C   0  0  0  0  0  0  0  0  0  0  0  0
   -0.8333  -54.3391  -24.3250 N   0  0  0  0  0  0  0  0  0  0  0  0
   -0.2935  -53.1737  -23.9263 C   0  0  0  0  0  0  0  0  0  0  0  0
   -0.2674  -52.9042  -22.5743 C   0  0  0  0  0  0  0  0  0  0  0  0
    0.2725  -51.7237  -22.0838 C   0  0  0  0  0  0  0  0  0  0  0  0
    0.2928  -51.4659  -20.7303 C   0  0  0  0  0  0  0  0  0  0  0  0
   -1.1889  -52.8122  -17.6987 C   0  0  0  0  0  0  0  0  0  0  0  0
   -0.2303  -52.1797  -18.5176 O   0  0  0  0  0  0  0  0  0  0  0  0
    0.2268  -52.2653  -24.8887 N   0  0  0  0  0  0  0  0  0  0  0  0
   -0.1808  -51.3644  -25.1230 H   0  0  0  0  0  0  0  0  0  0  0  0
    1.4481  -52.6412  -25.6105 C   0  0  0  0  0  0  0  0  0  0  0  0
    1.8694  -51.5645  -26.5565 C   0  0  0  0  0  0  0  0  0  0  0  0
    2.4363  -50.4076  -25.7679 C   0  0  0  0  0  0  0  0  0  0  0  0
    3.6506  -50.8911  -25.0199 C   0  0  0  0  0  0  0  0  0  0  0  0
    4.8574  -50.2075  -25.4459 N   0  0  0  0  0  0  0  0  0  0  0  0
    3.8286  -52.3927  -25.1331 C   0  0  0  0  0  0  0  0  0  0  0  0
    2.5445  -53.0322  -24.6433 C   0  0  0  0  0  0  0  0  0  0  0  0
    5.0866  -50.5343  -26.4183 H   0  0  0  0  0  0  0  0  0  0  0  0
    4.6152  -49.1812  -25.4653 H   0  0  0  0  0  0  0  0  0  0  0  0
    0.8121  -50.3159  -20.1693 O   0  0  0  0  0  0  0  0  0  0  0  0
    0.8986  -49.0770  -20.8041 C   0  0  0  0  0  0  0  0  0  0  0  0
 11 12  1  0  0  0
 12  1  1  0  0  0
  1  2  2  0  0  0
  2  3  1  0  0  0
  3  4  2  0  0  0
  4  5  1  0  0  0
  5  6  2  0  0  0
  6  7  1  0  0  0
  7 13  1  0  0  0
 13 15  1  0  0  0
 15 16  1  0  0  0
 16 17  1  0  0  0
 17 18  1  0  0  0
 18 19  1  0  0  0
 18 20  1  0  0  0
 20 21  1  0  0  0
  7  8  2  0  0  0
  8  9  1  0  0  0
  9 10  2  0  0  0
 10 24  1  0  0  0
 24 25  1  0  0  0
 10  1  1  0  0  0
  8  3  1  0  0  0
 21 15  1  0  0  0
 13 14  1  0  0  0
 19 22  1  0  0  0
 19 23  1  0  0  0
M  END
> <minimizedAffinity>
-7.21500

> <CNNscore>
0.9325242639

> <CNNaffinity>
6.3821563721

> <CNN_VS>
5.9515156746

> <CNNaffinity_variance>
0.0913834795

$$$$
[H]c1nc(N([H])[C@]2([H])C([H])([H])C([H])([H])[C@@]([H])(N([H])[H])C([H])([H])C2([H])[H])c2c([H])c(OC([H])([H])[H])c(OC([H])([H])[H])c([H])c2n1


 25 27  0  0  0  0  0  0  0  0999 V2000
   -0.0430  -52.1070  -19.3537 C   0  0  0  0  0  0  0  0  0  0  0  0
   -0.8090  -53.1893  -19.7593 C   0  0  0  0  0  0  0  0  0  0  0  0
   -0.7917  -53.6298  -21.0765 C   0  0  0  0  0  0  0  0  0  0  0  0
   -1.5480  -54.6908  -21.4553 N   0  0  0  0  0  0  0  0  0  0  0  0
   -1.5213  -55.1046  -22.7291 C   0  0  0  0  0  0  0  0  0  0  0  0
   -0.7349  -54.4383  -23.5819 N   0  0  0  0  0  0  0  0  0  0  0  0
    0.0349  -53.3823  -23.2642 C   0  0  0  0  0  0  0  0  0  0  0  0
    0.0196  -52.9429  -21.9574 C   0  0  0  0  0  0  0  0  0  0  0  0
    0.7860  -51.8599  -21.5509 C   0  0  0  0  0  0  0  0  0  0  0  0
    0.7621  -51.4303  -20.2418 C   0  0  0  0  0  0  0  0  0  0  0  0
   -1.0340  -52.2674  -17.1558 C   0  0  0  0  0  0  0  0  0  0  0  0
   -0.0863  -51.6965  -18.0308 O   0  0  0  0  0  0  0  0  0  0  0  0
    0.8301  -52.7565  -24.2633 N   0  0  0  0  0  0  0  0  0  0  0  0
    1.8379  -52.8510  -24.3529 H   0  0  0  0  0  0  0  0  0  0  0  0
    0.1601  -51.9032  -25.2517 C   0  0  0  0  0  0  0  0  0  0  0  0
    1.1378  -51.3418  -26.2318 C   0  0  0  0  0  0  0  0  0  0  0  0
    1.5855  -52.4398  -27.1676 C   0  0  0  0  0  0  0  0  0  0  0  0
    0.3831  -52.9409  -27.9232 C   0  0  0  0  0  0  0  0  0  0  0  0
    0.5056  -52.7117  -29.3506 N   0  0  0  0  0  0  0  0  0  0  0  0
   -0.9078  -52.3394  -27.4025 C   0  0  0  0  0  0  0  0  0  0  0  0
   -0.9766  -52.6463  -25.9197 C   0  0  0  0  0  0  0  0  0  0  0  0
    0.4225  -51.6774  -29.5191 H   0  0  0  0  0  0  0  0  0  0  0  0
    1.4745  -53.0362  -29.6120 H   0  0  0  0  0  0  0  0  0  0  0  0
    1.4959  -50.3623  -19.7644 O   0  0  0  0  0  0  0  0  0  0  0  0
    1.3828  -49.0443  -20.2064 C   0  0  0  0  0  0  0  0  0  0  0  0
 11 12  1  0  0  0
 12  1  1  0  0  0
  1  2  2  0  0  0
  2  3  1  0  0  0
  3  4  2  0  0  0
  4  5  1  0  0  0
  5  6  2  0  0  0
  6  7  1  0  0  0
  7 13  1  0  0  0
 13 15  1  0  0  0
 15 16  1  0  0  0
 16 17  1  0  0  0
 17 18  1  0  0  0
 18 19  1  0  0  0
 18 20  1  0  0  0
 20 21  1  0  0  0
  7  8  2  0  0  0
  8  9  1  0  0  0
  9 10  2  0  0  0
 10 24  1  0  0  0
 24 25  1  0  0  0
 10  1  1  0  0  0
  8  3  1  0  0  0
 21 15  1  0  0  0
 13 14  1  0  0  0
 19 22  1  0  0  0
 19 23  1  0  0  0
M  END
> <minimizedAffinity>
-7.77237

> <CNNscore>
0.9280835986

> <CNNaffinity>
6.7537126541

> <CNN_VS>
6.2680101395

> <CNNaffinity_variance>
0.1902950704

$$$$
[H]c1nc(N([H])[C@]2([H])C([H])([H])C([H])([H])[C@@]([H])(N([H])[H])C([H])([H])C2([H])[H])c2c([H])c(OC([H])([H])[H])c(OC([H])([H])[H])c([H])c2n1


 25 27  0  0  0  0  0  0  0  0999 V2000
    0.6943  -52.9432  -26.5148 C   0  0  0  0  0  0  0  0  0  0  0  0
    0.0204  -54.0247  -25.9683 C   0  0  0  0  0  0  0  0  0  0  0  0
   -0.3897  -54.0210  -24.6412 C   0  0  0  0  0  0  0  0  0  0  0  0
   -1.0482  -55.0886  -24.1234 N   0  0  0  0  0  0  0  0  0  0  0  0
   -1.4377  -55.0711  -22.8418 C   0  0  0  0  0  0  0  0  0  0  0  0
   -1.1528  -53.9805  -22.1213 N   0  0  0  0  0  0  0  0  0  0  0  0
   -0.5044  -52.8951  -22.5797 C   0  0  0  0  0  0  0  0  0  0  0  0
   -0.0962  -52.8961  -23.8967 C   0  0  0  0  0  0  0  0  0  0  0  0
    0.5783  -51.8141  -24.4442 C   0  0  0  0  0  0  0  0  0  0  0  0
    0.9812  -51.8271  -25.7619 C   0  0  0  0  0  0  0  0  0  0  0  0
    0.1119  -52.9232  -28.8598 C   0  0  0  0  0  0  0  0  0  0  0  0
    1.0877  -52.9833  -27.8430 O   0  0  0  0  0  0  0  0  0  0  0  0
   -0.2601  -51.7946  -21.7130 N   0  0  0  0  0  0  0  0  0  0  0  0
   -0.7591  -50.9097  -21.7363 H   0  0  0  0  0  0  0  0  0  0  0  0
    0.7918  -51.9288  -20.6983 C   0  0  0  0  0  0  0  0  0  0  0  0
    1.8540  -50.8945  -20.8815 C   0  0  0  0  0  0  0  0  0  0  0  0
    1.3147  -49.5505  -20.4519 C   0  0  0  0  0  0  0  0  0  0  0  0
    0.9639  -49.6240  -18.9892 C   0  0  0  0  0  0  0  0  0  0  0  0
    1.7623  -48.7104  -18.1937 N   0  0  0  0  0  0  0  0  0  0  0  0
    1.0806  -51.0348  -18.4458 C   0  0  0  0  0  0  0  0  0  0  0  0
    0.1989  -51.9184  -19.3059 C   0  0  0  0  0  0  0  0  0  0  0  0
    2.7476  -49.0763  -18.1747 H   0  0  0  0  0  0  0  0  0  0  0  0
    1.7373  -47.7875  -18.7037 H   0  0  0  0  0  0  0  0  0  0  0  0
    1.6553  -50.7896  -26.3753 O   0  0  0  0  0  0  0  0  0  0  0  0
    2.9969  -50.4675  -26.1713 C   0  0  0  0  0  0  0  0  0  0  0  0
 11 12  1  0  0  0
 12  1  1  0  0  0
  1  2  2  0  0  0
  2  3  1  0  0  0
  3  4  2  0  0  0
  4  5  1  0  0  0
  5  6  2  0  0  0
  6  7  1  0  0  0
  7 13  1  0  0  0
 13 15  1  0  0  0
 15 16  1  0  0  0
 16 17  1  0  0  0
 17 18  1  0  0  0
 18 19  1  0  0  0
 18 20  1  0  0  0
 20 21  1  0  0  0
  7  8  2  0  0  0
  8  9  1  0  0  0
  9 10  2  0  0  0
 10 24  1  0  0  0
 24 25  1  0  0  0
 10  1  1  0  0  0
  8  3  1  0  0  0
 21 15  1  0  0  0
 13 14  1  0  0  0
 19 22  1  0  0  0
 19 23  1  0  0  0
M  END
> <minimizedAffinity>
-6.84916

> <CNNscore>
0.6099727154

> <CNNaffinity>
6.1813802719

> <CNN_VS>
3.7704732418

> <CNNaffinity_variance>
0.4222457409

$$$$
[H]c1nc(N([H])[C@]2([H])C([H])([H])C([H])([H])[C@@]([H])(N([H])[H])C([H])([H])C2([H])[H])c2c([H])c(OC([H])([H])[H])c(OC([H])([H])[H])c([H])c2n1


 25 27  0  0  0  0  0  0  0  0999 V2000
   -0.1340  -53.8791  -24.8024 C   0  0  0  0  0  0  0  0  0  0  0  0
   -0.9657  -54.3006  -23.7763 C   0  0  0  0  0  0  0  0  0  0  0  0
   -0.7465  -53.9036  -22.4633 C   0  0  0  0  0  0  0  0  0  0  0  0
   -1.5709  -54.3261  -21.4718 N   0  0  0  0  0  0  0  0  0  0  0  0
   -1.3473  -53.9352  -20.2102 C   0  0  0  0  0  0  0  0  0  0  0  0
   -0.3017  -53.1316  -19.9854 N   0  0  0  0  0  0  0  0  0  0  0  0
    0.5477  -52.6818  -20.9261 C   0  0  0  0  0  0  0  0  0  0  0  0
    0.3324  -53.0743  -22.2302 C   0  0  0  0  0  0  0  0  0  0  0  0
    1.1644  -52.6529  -23.2577 C   0  0  0  0  0  0  0  0  0  0  0  0
    0.9387  -53.0521  -24.5571 C   0  0  0  0  0  0  0  0  0  0  0  0
    0.0832  -55.5560  -26.5285 C   0  0  0  0  0  0  0  0  0  0  0  0
   -0.3844  -54.2961  -26.1001 O   0  0  0  0  0  0  0  0  0  0  0  0
    1.6258  -51.8294  -20.5610 N   0  0  0  0  0  0  0  0  0  0  0  0
    2.6109  -52.0646  -20.6428 H   0  0  0  0  0  0  0  0  0  0  0  0
    1.3103  -50.5013  -20.0220 C   0  0  0  0  0  0  0  0  0  0  0  0
    2.4903  -49.9071  -19.3248 C   0  0  0  0  0  0  0  0  0  0  0  0
    3.5103  -49.4816  -20.3546 C   0  0  0  0  0  0  0  0  0  0  0  0
    2.8896  -48.4262  -21.2313 C   0  0  0  0  0  0  0  0  0  0  0  0
    3.5837  -47.1565  -21.1253 N   0  0  0  0  0  0  0  0  0  0  0  0
    1.4120  -48.2437  -20.9438 C   0  0  0  0  0  0  0  0  0  0  0  0
    0.7555  -49.6006  -21.1043 C   0  0  0  0  0  0  0  0  0  0  0  0
    3.3840  -46.7587  -20.1731 H   0  0  0  0  0  0  0  0  0  0  0  0
    4.6107  -47.3824  -21.2062 H   0  0  0  0  0  0  0  0  0  0  0  0
    1.7220  -52.6743  -25.6298 O   0  0  0  0  0  0  0  0  0  0  0  0
    3.1071  -52.8184  -25.7072 C   0  0  0  0  0  0  0  0  0  0  0  0
 11 12  1  0  0  0
 12  1  1  0  0  0
  1  2  2  0  0  0
  2  3  1  0  0  0
  3  4  2  0  0  0
  4  5  1  0  0  0
  5  6  2  0  0  0
  6  7  1  0  0  0
  7 13  1  0  0  0
 13 15  1  0  0  0
 15 16  1  0  0  0
 16 17  1  0  0  0
 17 18  1  0  0  0
 18 19  1  0  0  0
 18 20  1  0  0  0
 20 21  1  0  0  0
  7  8  2  0  0  0
  8  9  1  0  0  0
  9 10  2  0  0  0
 10 24  1  0  0  0
 24 25  1  0  0  0
 10  1  1  0  0  0
  8  3  1  0  0  0
 21 15  1  0  0  0
 13 14  1  0  0  0
 19 22  1  0  0  0
 19 23  1  0  0  0
M  END
> <minimizedAffinity>
-6.53209

> <CNNscore>
0.5915973186

> <CNNaffinity>
5.9629211426

> <CNN_VS>
3.5276482105

> <CNNaffinity_variance>
0.5745969415

$$$$
[H]c1nc(N([H])[C@]2([H])C([H])([H])C([H])([H])[C@@]([H])(N([H])[H])C([H])([H])C2([H])[H])c2c([H])c(OC([H])([H])[H])c(OC([H])([H])[H])c([H])c2n1


 25 27  0  0  0  0  0  0  0  0999 V2000
   -0.3552  -53.7138  -24.8962 C   0  0  0  0  0  0  0  0  0  0  0  0
   -0.9212  -54.3346  -23.7932 C   0  0  0  0  0  0  0  0  0  0  0  0
   -0.8011  -53.7904  -22.5208 C   0  0  0  0  0  0  0  0  0  0  0  0
   -1.3616  -54.4120  -21.4528 N   0  0  0  0  0  0  0  0  0  0  0  0
   -1.2377  -53.8757  -20.2315 C   0  0  0  0  0  0  0  0  0  0  0  0
   -0.5539  -52.7310  -20.1228 N   0  0  0  0  0  0  0  0  0  0  0  0
    0.0221  -52.0712  -21.1434 C   0  0  0  0  0  0  0  0  0  0  0  0
   -0.0956  -52.6092  -22.4074 C   0  0  0  0  0  0  0  0  0  0  0  0
    0.4706  -51.9884  -23.5118 C   0  0  0  0  0  0  0  0  0  0  0  0
    0.3460  -52.5360  -24.7701 C   0  0  0  0  0  0  0  0  0  0  0  0
    0.1278  -55.5217  -26.4249 C   0  0  0  0  0  0  0  0  0  0  0  0
   -0.4961  -54.2868  -26.1501 O   0  0  0  0  0  0  0  0  0  0  0  0
    0.7247  -50.8591  -20.8996 N   0  0  0  0  0  0  0  0  0  0  0  0
    0.5684  -49.9835  -21.3910 H   0  0  0  0  0  0  0  0  0  0  0  0
    1.7607  -50.8529  -19.8601 C   0  0  0  0  0  0  0  0  0  0  0  0
    2.8402  -51.8387  -20.1675 C   0  0  0  0  0  0  0  0  0  0  0  0
    3.6800  -51.3126  -21.3075 C   0  0  0  0  0  0  0  0  0  0  0  0
    4.3199  -50.0212  -20.8707 C   0  0  0  0  0  0  0  0  0  0  0  0
    5.7676  -50.1145  -20.8464 N   0  0  0  0  0  0  0  0  0  0  0  0
    3.8000  -49.5548  -19.5248 C   0  0  0  0  0  0  0  0  0  0  0  0
    2.2920  -49.4531  -19.6401 C   0  0  0  0  0  0  0  0  0  0  0  0
    6.0365  -50.7432  -20.0480 H   0  0  0  0  0  0  0  0  0  0  0  0
    6.0422  -50.5650  -21.7597 H   0  0  0  0  0  0  0  0  0  0  0  0
    0.8810  -51.9769  -25.9138 O   0  0  0  0  0  0  0  0  0  0  0  0
    2.2259  -52.0225  -26.2806 C   0  0  0  0  0  0  0  0  0  0  0  0
 11 12  1  0  0  0
 12  1  1  0  0  0
  1  2  2  0  0  0
  2  3  1  0  0  0
  3  4  2  0  0  0
  4  5  1  0  0  0
  5  6  2  0  0  0
  6  7  1  0  0  0
  7 13  1  0  0  0
 13 15  1  0  0  0
 15 16  1  0  0  0
 16 17  1  0  0  0
 17 18  1  0  0  0
 18 19  1  0  0  0
 18 20  1  0  0  0
 20 21  1  0  0  0
  7  8  2  0  0  0
  8  9  1  0  0  0
  9 10  2  0  0  0
 10 24  1  0  0  0
 24 25  1  0  0  0
 10  1  1  0  0  0
  8  3  1  0  0  0
 21 15  1  0  0  0
 13 14  1  0  0  0
 19 22  1  0  0  0
 19 23  1  0  0  0
M  END
> <minimizedAffinity>
-6.45318

> <CNNscore>
0.5828096271

> <CNNaffinity>
5.8448514938

> <CNN_VS>
3.4064357281

> <CNNaffinity_variance>
0.3370314240

$$$$
[H]c1nc(N([H])[C@]2([H])C([H])([H])C([H])([H])[C@@]([H])(N([H])[H])C([H])([H])C2([H])[H])c2c([H])c(OC([H])([H])[H])c(OC([H])([H])[H])c([H])c2n1


 25 27  0  0  0  0  0  0  0  0999 V2000
    0.9081  -50.1682  -19.9579 C   0  0  0  0  0  0  0  0  0  0  0  0
    0.1404  -51.2754  -19.6307 C   0  0  0  0  0  0  0  0  0  0  0  0
   -0.1422  -52.2583  -20.5707 C   0  0  0  0  0  0  0  0  0  0  0  0
   -0.8954  -53.3352  -20.2325 N   0  0  0  0  0  0  0  0  0  0  0  0
   -1.1599  -54.2752  -21.1495 C   0  0  0  0  0  0  0  0  0  0  0  0
   -0.6587  -54.1027  -22.3778 N   0  0  0  0  0  0  0  0  0  0  0  0
    0.0925  -53.0583  -22.7697 C   0  0  0  0  0  0  0  0  0  0  0  0
    0.3746  -52.0812  -21.8386 C   0  0  0  0  0  0  0  0  0  0  0  0
    1.1428  -50.9728  -22.1654 C   0  0  0  0  0  0  0  0  0  0  0  0
    1.4178  -50.0030  -21.2259 C   0  0  0  0  0  0  0  0  0  0  0  0
    0.9067  -49.4952  -17.6372 C   0  0  0  0  0  0  0  0  0  0  0  0
    1.1691  -49.2082  -18.9931 O   0  0  0  0  0  0  0  0  0  0  0  0
    0.5683  -52.9877  -24.1079 N   0  0  0  0  0  0  0  0  0  0  0  0
    1.4998  -52.6884  -24.3824 H   0  0  0  0  0  0  0  0  0  0  0  0
   -0.3433  -53.3738  -25.1913 C   0  0  0  0  0  0  0  0  0  0  0  0
   -0.6309  -52.2179  -26.0929 C   0  0  0  0  0  0  0  0  0  0  0  0
    0.5903  -51.9318  -26.9347 C   0  0  0  0  0  0  0  0  0  0  0  0
    0.8775  -53.1422  -27.7834 C   0  0  0  0  0  0  0  0  0  0  0  0
    0.7652  -52.8500  -29.2001 N   0  0  0  0  0  0  0  0  0  0  0  0
   -0.0075  -54.3177  -27.4167 C   0  0  0  0  0  0  0  0  0  0  0  0
    0.1884  -54.5789  -25.9365 C   0  0  0  0  0  0  0  0  0  0  0  0
   -0.2518  -52.6980  -29.4180 H   0  0  0  0  0  0  0  0  0  0  0  0
    1.2977  -51.9523  -29.3517 H   0  0  0  0  0  0  0  0  0  0  0  0
    2.1733  -48.8747  -21.4767 O   0  0  0  0  0  0  0  0  0  0  0  0
    3.3953  -48.8555  -22.1489 C   0  0  0  0  0  0  0  0  0  0  0  0
 11 12  1  0  0  0
 12  1  1  0  0  0
  1  2  2  0  0  0
  2  3  1  0  0  0
  3  4  2  0  0  0
  4  5  1  0  0  0
  5  6  2  0  0  0
  6  7  1  0  0  0
  7 13  1  0  0  0
 13 15  1  0  0  0
 15 16  1  0  0  0
 16 17  1  0  0  0
 17 18  1  0  0  0
 18 19  1  0  0  0
 18 20  1  0  0  0
 20 21  1  0  0  0
  7  8  2  0  0  0
  8  9  1  0  0  0
  9 10  2  0  0  0
 10 24  1  0  0  0
 24 25  1  0  0  0
 10  1  1  0  0  0
  8  3  1  0  0  0
 21 15  1  0  0  0
 13 14  1  0  0  0
 19 22  1  0  0  0
 19 23  1  0  0  0
M  END
> <minimizedAffinity>
-7.19730

> <CNNscore>
0.5689931512

> <CNNaffinity>
6.1722908020

> <CNN_VS>
3.5119912624

> <CNNaffinity_variance>
0.2575251758

$$$$
[H]c1nc(N([H])[C@]2([H])C([H])([H])C([H])([H])[C@@]([H])(N([H])[H])C([H])([H])C2([H])[H])c2c([H])c(OC([H])([H])[H])c(OC([H])([H])[H])c([H])c2n1


 25 27  0  0  0  0  0  0  0  0999 V2000
    2.6297  -51.7854  -19.7865 C   0  0  0  0  0  0  0  0  0  0  0  0
    1.4774  -52.5103  -19.5240 C   0  0  0  0  0  0  0  0  0  0  0  0
    0.6184  -52.8916  -20.5469 C   0  0  0  0  0  0  0  0  0  0  0  0
   -0.5051  -53.6008  -20.2711 N   0  0  0  0  0  0  0  0  0  0  0  0
   -1.3242  -53.9617  -21.2677 C   0  0  0  0  0  0  0  0  0  0  0  0
   -0.9878  -53.5979  -22.5103 N   0  0  0  0  0  0  0  0  0  0  0  0
    0.1104  -52.8965  -22.8431 C   0  0  0  0  0  0  0  0  0  0  0  0
    0.9647  -52.5167  -21.8296 C   0  0  0  0  0  0  0  0  0  0  0  0
    2.1182  -51.7912  -22.0917 C   0  0  0  0  0  0  0  0  0  0  0  0
    2.9641  -51.4175  -21.0702 C   0  0  0  0  0  0  0  0  0  0  0  0
    2.9913  -50.5334  -17.7517 C   0  0  0  0  0  0  0  0  0  0  0  0
    3.4626  -51.4229  -18.7398 O   0  0  0  0  0  0  0  0  0  0  0  0
    0.3593  -52.5695  -24.2044 N   0  0  0  0  0  0  0  0  0  0  0  0
    1.0634  -51.9126  -24.5289 H   0  0  0  0  0  0  0  0  0  0  0  0
   -0.4547  -53.2225  -25.2364 C   0  0  0  0  0  0  0  0  0  0  0  0
   -0.9462  -52.2337  -26.2425 C   0  0  0  0  0  0  0  0  0  0  0  0
    0.2068  -51.8068  -27.1201 C   0  0  0  0  0  0  0  0  0  0  0  0
    0.7229  -53.0183  -27.8506 C   0  0  0  0  0  0  0  0  0  0  0  0
    0.5697  -52.8908  -29.2878 N   0  0  0  0  0  0  0  0  0  0  0  0
    0.0707  -54.2976  -27.3634 C   0  0  0  0  0  0  0  0  0  0  0  0
    0.2996  -54.3730  -25.8669 C   0  0  0  0  0  0  0  0  0  0  0  0
   -0.4559  -52.9538  -29.5093 H   0  0  0  0  0  0  0  0  0  0  0  0
    0.9258  -51.9282  -29.5307 H   0  0  0  0  0  0  0  0  0  0  0  0
    4.1274  -50.6964  -21.2535 O   0  0  0  0  0  0  0  0  0  0  0  0
    5.2880  -51.1783  -21.8586 C   0  0  0  0  0  0  0  0  0  0  0  0
 11 12  1  0  0  0
 12  1  1  0  0  0
  1  2  2  0  0  0
  2  3  1  0  0  0
  3  4  2  0  0  0
  4  5  1  0  0  0
  5  6  2  0  0  0
  6  7  1  0  0  0
  7 13  1  0  0  0
 13 15  1  0  0  0
 15 16  1  0  0  0
 16 17  1  0  0  0
 17 18  1  0  0  0
 18 19  1  0  0  0
 18 20  1  0  0  0
 20 21  1  0  0  0
  7  8  2  0  0  0
  8  9  1  0  0  0
  9 10  2  0  0  0
 10 24  1  0  0  0
 24 25  1  0  0  0
 10  1  1  0  0  0
  8  3  1  0  0  0
 21 15  1  0  0  0
 13 14  1  0  0  0
 19 22  1  0  0  0
 19 23  1  0  0  0
M  END
> <minimizedAffinity>
-7.31523

> <CNNscore>
0.4930418730

> <CNNaffinity>
6.1839051247

> <CNN_VS>
3.0489242077

> <CNNaffinity_variance>
0.2212920934

$$$$
[H]c1nc(N([H])[C@]2([H])C([H])([H])C([H])([H])[C@@]([H])(N([H])[H])C([H])([H])C2([H])[H])c2c([H])c(OC([H])([H])[H])c(OC([H])([H])[H])c([H])c2n1


 25 27  0  0  0  0  0  0  0  0999 V2000
    0.7340  -52.8605  -24.6330 C   0  0  0  0  0  0  0  0  0  0  0  0
   -0.3053  -53.4265  -23.9106 C   0  0  0  0  0  0  0  0  0  0  0  0
   -0.3350  -53.3639  -22.5233 C   0  0  0  0  0  0  0  0  0  0  0  0
   -1.3604  -53.9236  -21.8328 N   0  0  0  0  0  0  0  0  0  0  0  0
   -1.3757  -53.8556  -20.4951 C   0  0  0  0  0  0  0  0  0  0  0  0
   -0.3594  -53.2269  -19.8937 N   0  0  0  0  0  0  0  0  0  0  0  0
    0.6814  -52.6548  -20.5246 C   0  0  0  0  0  0  0  0  0  0  0  0
    0.7133  -52.7154  -21.9017 C   0  0  0  0  0  0  0  0  0  0  0  0
    1.7532  -52.1492  -22.6253 C   0  0  0  0  0  0  0  0  0  0  0  0
    1.7737  -52.2163  -24.0015 C   0  0  0  0  0  0  0  0  0  0  0  0
   -0.3989  -52.4962  -26.7360 C   0  0  0  0  0  0  0  0  0  0  0  0
    0.7291  -52.9429  -26.0164 O   0  0  0  0  0  0  0  0  0  0  0  0
    1.7036  -52.0140  -19.7719 N   0  0  0  0  0  0  0  0  0  0  0  0
    2.6603  -52.3450  -19.6845 H   0  0  0  0  0  0  0  0  0  0  0  0
    1.3693  -50.7758  -19.0584 C   0  0  0  0  0  0  0  0  0  0  0  0
    1.8527  -50.8193  -17.6456 C   0  0  0  0  0  0  0  0  0  0  0  0
    3.3561  -50.6725  -17.6328 C   0  0  0  0  0  0  0  0  0  0  0  0
    3.7083  -49.3309  -18.2192 C   0  0  0  0  0  0  0  0  0  0  0  0
    4.3743  -48.4757  -17.2548 N   0  0  0  0  0  0  0  0  0  0  0  0
    2.4966  -48.6269  -18.7985 C   0  0  0  0  0  0  0  0  0  0  0  0
    1.8776  -49.5670  -19.8138 C   0  0  0  0  0  0  0  0  0  0  0  0
    3.6651  -48.1909  -16.5330 H   0  0  0  0  0  0  0  0  0  0  0  0
    5.1171  -49.0738  -16.8045 H   0  0  0  0  0  0  0  0  0  0  0  0
    2.7730  -51.6775  -24.7877 O   0  0  0  0  0  0  0  0  0  0  0  0
    4.0947  -52.1211  -24.8282 C   0  0  0  0  0  0  0  0  0  0  0  0
 11 12  1  0  0  0
 12  1  1  0  0  0
  1  2  2  0  0  0
  2  3  1  0  0  0
  3  4  2  0  0  0
  4  5  1  0  0  0
  5  6  2  0  0  0
  6  7  1  0  0  0
  7 13  1  0  0  0
 13 15  1  0  0  0
 15 16  1  0  0  0
 16 17  1  0  0  0
 17 18  1  0  0  0
 18 19  1  0  0  0
 18 20  1  0  0  0
 20 21  1  0  0  0
  7  8  2  0  0  0
  8  9  1  0  0  0
  9 10  2  0  0  0
 10 24  1  0  0  0
 24 25  1  0  0  0
 10  1  1  0  0  0
  8  3  1  0  0  0
 21 15  1  0  0  0
 13 14  1  0  0  0
 19 22  1  0  0  0
 19 23  1  0  0  0
M  END
> <minimizedAffinity>
-5.92747

> <CNNscore>
0.4875410497

> <CNNaffinity>
5.8580307961

> <CNN_VS>
2.8560304642

> <CNNaffinity_variance>
0.6978788376

$$$$
[H]c1nc(N([H])[C@]2([H])C([H])([H])C([H])([H])[C@@]([H])(N([H])[H])C([H])([H])C2([H])[H])c2c([H])c(OC([H])([H])[H])c(OC([H])([H])[H])c([H])c2n1


 25 27  0  0  0  0  0  0  0  0999 V2000
    0.8260  -52.7944  -27.0549 C   0  0  0  0  0  0  0  0  0  0  0  0
   -0.0045  -53.7252  -26.4498 C   0  0  0  0  0  0  0  0  0  0  0  0
   -0.1313  -53.7855  -25.0678 C   0  0  0  0  0  0  0  0  0  0  0  0
   -0.9490  -54.7033  -24.4931 N   0  0  0  0  0  0  0  0  0  0  0  0
   -1.0614  -54.7499  -23.1590 C   0  0  0  0  0  0  0  0  0  0  0  0
   -0.3479  -53.8720  -22.4450 N   0  0  0  0  0  0  0  0  0  0  0  0
    0.4768  -52.9420  -22.9585 C   0  0  0  0  0  0  0  0  0  0  0  0
    0.6045  -52.8800  -24.3300 C   0  0  0  0  0  0  0  0  0  0  0  0
    1.4356  -51.9486  -24.9362 C   0  0  0  0  0  0  0  0  0  0  0  0
    1.5547  -51.8966  -26.3080 C   0  0  0  0  0  0  0  0  0  0  0  0
   -0.2415  -52.8589  -29.2217 C   0  0  0  0  0  0  0  0  0  0  0  0
    0.9267  -52.7645  -28.4368 O   0  0  0  0  0  0  0  0  0  0  0  0
    1.1833  -52.0627  -22.0925 N   0  0  0  0  0  0  0  0  0  0  0  0
    2.1413  -52.1942  -21.7802 H   0  0  0  0  0  0  0  0  0  0  0  0
    0.4908  -50.8657  -21.6013 C   0  0  0  0  0  0  0  0  0  0  0  0
    0.1284  -51.0052  -20.1588 C   0  0  0  0  0  0  0  0  0  0  0  0
    1.3795  -50.8857  -19.3209 C   0  0  0  0  0  0  0  0  0  0  0  0
    1.9682  -49.5166  -19.5373 C   0  0  0  0  0  0  0  0  0  0  0  0
    1.9856  -48.7346  -18.3153 N   0  0  0  0  0  0  0  0  0  0  0  0
    1.2536  -48.7569  -20.6380 C   0  0  0  0  0  0  0  0  0  0  0  0
    1.3049  -49.6212  -21.8822 C   0  0  0  0  0  0  0  0  0  0  0  0
    0.9925  -48.4830  -18.0797 H   0  0  0  0  0  0  0  0  0  0  0  0
    2.3751  -49.3724  -17.5711 H   0  0  0  0  0  0  0  0  0  0  0  0
    2.3601  -50.9994  -26.9813 O   0  0  0  0  0  0  0  0  0  0  0  0
    3.1565  -50.0236  -26.3823 C   0  0  0  0  0  0  0  0  0  0  0  0
 11 12  1  0  0  0
 12  1  1  0  0  0
  1  2  2  0  0  0
  2  3  1  0  0  0
  3  4  2  0  0  0
  4  5  1  0  0  0
  5  6  2  0  0  0
  6  7  1  0  0  0
  7 13  1  0  0  0
 13 15  1  0  0  0
 15 16  1  0  0  0
 16 17  1  0  0  0
 17 18  1  0  0  0
 18 19  1  0  0  0
 18 20  1  0  0  0
 20 21  1  0  0  0
  7  8  2  0  0  0
  8  9  1  0  0  0
  9 10  2  0  0  0
 10 24  1  0  0  0
 24 25  1  0  0  0
 10  1  1  0  0  0
  8  3  1  0  0  0
 21 15  1  0  0  0
 13 14  1  0  0  0
 19 22  1  0  0  0
 19 23  1  0  0  0
M  END
> <minimizedAffinity>
-7.07107

> <CNNscore>
0.4368705750

> <CNNaffinity>
6.1174058914

> <CNN_VS>
2.6725146770

> <CNNaffinity_variance>
0.5645824075

$$$$
[H]c1c([H])c([H])c2c(c1[H])c1c3c(c4c5c([H])c([H])c([H])c([H])c5n5c4c1n2[C@@]1(C([H])([H])[H])O[C@]5([H])C([H])([H])[C@@]([H])(N([H])C([H])([H])[H])[C@]1([H])OC([H])([H])[H])C(=O)N([H])C3([H])[H]


 37 44  0  0  0  0  0  0  0  0999 V2000
    4.2413  -48.5916  -19.8763 C   0  0  0  0  0  0  0  0  0  0  0  0
    3.2893  -49.6348  -19.3840 C   0  0  0  0  0  0  0  0  0  0  0  0
    1.8999  -49.1216  -19.6839 C   0  0  0  0  0  0  0  0  0  0  0  0
    1.7875  -48.3401  -20.7523 O   0  0  0  0  0  0  0  0  0  0  0  0
    2.6769  -48.5240  -21.8311 C   0  0  0  0  0  0  0  0  0  0  0  0
    2.4327  -47.2270  -22.6282 C   0  0  0  0  0  0  0  0  0  0  0  0
    4.0918  -48.5560  -21.4127 C   0  0  0  0  0  0  0  0  0  0  0  0
    2.2348  -49.6376  -22.6492 N   0  0  0  0  0  0  0  0  0  0  0  0
    2.4903  -49.8164  -23.9773 C   0  0  0  0  0  0  0  0  0  0  0  0
    3.2418  -49.1212  -24.8689 C   0  0  0  0  0  0  0  0  0  0  0  0
    3.3424  -49.5417  -26.1788 C   0  0  0  0  0  0  0  0  0  0  0  0
    2.6998  -50.6660  -26.6414 C   0  0  0  0  0  0  0  0  0  0  0  0
    1.9328  -51.3662  -25.7037 C   0  0  0  0  0  0  0  0  0  0  0  0
    1.8424  -50.9410  -24.4164 C   0  0  0  0  0  0  0  0  0  0  0  0
    1.1788  -51.4748  -23.3522 C   0  0  0  0  0  0  0  0  0  0  0  0
    0.3635  -52.5930  -23.1704 C   0  0  0  0  0  0  0  0  0  0  0  0
   -0.0494  -53.5999  -24.1744 C   0  0  0  0  0  0  0  0  0  0  0  0
   -0.8831  -54.5283  -23.4741 N   0  0  0  0  0  0  0  0  0  0  0  0
   -0.9721  -54.1103  -22.1028 C   0  0  0  0  0  0  0  0  0  0  0  0
   -1.6426  -54.7608  -21.2901 O   0  0  0  0  0  0  0  0  0  0  0  0
   -0.1889  -52.9038  -21.9351 C   0  0  0  0  0  0  0  0  0  0  0  0
    0.0950  -52.0682  -20.8789 C   0  0  0  0  0  0  0  0  0  0  0  0
   -0.2396  -52.0705  -19.5322 C   0  0  0  0  0  0  0  0  0  0  0  0
   -1.0035  -52.9036  -18.7735 C   0  0  0  0  0  0  0  0  0  0  0  0
   -1.1390  -52.6131  -17.4050 C   0  0  0  0  0  0  0  0  0  0  0  0
   -0.5189  -51.5230  -16.8570 C   0  0  0  0  0  0  0  0  0  0  0  0
    0.2529  -50.6834  -17.6302 C   0  0  0  0  0  0  0  0  0  0  0  0
    0.3883  -50.9603  -18.9591 C   0  0  0  0  0  0  0  0  0  0  0  0
    1.0669  -50.3096  -19.8854 N   0  0  0  0  0  0  0  0  0  0  0  0
    0.9108  -50.9452  -21.0538 C   0  0  0  0  0  0  0  0  0  0  0  0
    1.4252  -50.6827  -22.2923 C   0  0  0  0  0  0  0  0  0  0  0  0
   -1.3315  -55.3558  -23.9186 H   0  0  0  0  0  0  0  0  0  0  0  0
    6.1283  -47.8289  -18.6952 C   0  0  0  0  0  0  0  0  0  0  0  0
    5.6190  -48.8890  -19.5451 N   0  0  0  0  0  0  0  0  0  0  0  0
    5.6813  -49.7696  -18.9779 H   0  0  0  0  0  0  0  0  0  0  0  0
    4.8710  -47.4733  -21.8062 O   0  0  0  0  0  0  0  0  0  0  0  0
    5.8897  -47.7758  -22.6748 C   0  0  0  0  0  0  0  0  0  0  0  0
 33 34  1  0  0  0
 34  1  1  0  0  0
  1  2  1  0  0  0
  2  3  1  0  0  0
  3  4  1  0  0  0
  4  5  1  0  0  0
  5  6  1  0  0  0
  5  7  1  0  0  0
  7 36  1  0  0  0
 36 37  1  0  0  0
  5  8  1  0  0  0
  8  9  1  0  0  0
  9 10  2  0  0  0
 10 11  1  0  0  0
 11 12  2  0  0  0
 12 13  1  0  0  0
 13 14  2  0  0  0
 14 15  1  0  0  0
 15 16  2  0  0  0
 16 17  1  0  0  0
 17 18  1  0  0  0
 18 19  1  0  0  0
 19 20  2  0  0  0
 19 21  1  0  0  0
 21 22  2  0  0  0
 22 23  1  0  0  0
 23 24  2  0  0  0
 24 25  1  0  0  0
 25 26  2  0  0  0
 26 27  1  0  0  0
 27 28  2  0  0  0
 28 29  1  0  0  0
 29 30  1  0  0  0
 30 31  2  0  0  0
  7  1  1  0  0  0
 31  8  1  0  0  0
 29  3  1  0  0  0
 14  9  1  0  0  0
 31 15  1  0  0  0
 21 16  1  0  0  0
 30 22  1  0  0  0
 28 23  1  0  0  0
 34 35  1  0  0  0
 18 32  1  0  0  0
M  END
> <minimizedAffinity>
-10.07961

> <CNNscore>
0.8576976061

> <CNNaffinity>
6.9146780968

> <CNN_VS>
5.9307026863

> <CNNaffinity_variance>
0.0603560917

$$$$
[H]c1c([H])c([H])c2c(c1[H])c1c3c(c4c5c([H])c([H])c([H])c([H])c5n5c4c1n2[C@@]1(C([H])([H])[H])O[C@]5([H])C([H])([H])[C@@]([H])(N([H])C([H])([H])[H])[C@]1([H])OC([H])([H])[H])C(=O)N([H])C3([H])[H]


 37 44  0  0  0  0  0  0  0  0999 V2000
    4.7649  -49.9347  -23.4475 C   0  0  0  0  0  0  0  0  0  0  0  0
    3.9110  -50.4221  -22.3205 C   0  0  0  0  0  0  0  0  0  0  0  0
    2.5729  -49.7360  -22.4701 C   0  0  0  0  0  0  0  0  0  0  0  0
    2.2085  -49.4383  -23.7125 O   0  0  0  0  0  0  0  0  0  0  0  0
    2.6627  -50.2508  -24.7719 C   0  0  0  0  0  0  0  0  0  0  0  0
    2.3265  -49.3574  -25.9827 C   0  0  0  0  0  0  0  0  0  0  0  0
    4.1217  -50.4714  -24.7447 C   0  0  0  0  0  0  0  0  0  0  0  0
    1.8448  -51.4458  -24.8614 N   0  0  0  0  0  0  0  0  0  0  0  0
    1.6237  -52.1919  -25.9817 C   0  0  0  0  0  0  0  0  0  0  0  0
    2.1162  -52.1189  -27.2447 C   0  0  0  0  0  0  0  0  0  0  0  0
    1.7271  -53.0324  -28.2024 C   0  0  0  0  0  0  0  0  0  0  0  0
    0.8377  -54.0461  -27.9331 C   0  0  0  0  0  0  0  0  0  0  0  0
    0.3453  -54.1013  -26.6245 C   0  0  0  0  0  0  0  0  0  0  0  0
    0.7370  -53.1952  -25.6909 C   0  0  0  0  0  0  0  0  0  0  0  0
    0.4033  -53.0797  -24.3744 C   0  0  0  0  0  0  0  0  0  0  0  0
   -0.4342  -53.7902  -23.5131 C   0  0  0  0  0  0  0  0  0  0  0  0
   -1.2734  -54.9716  -23.8174 C   0  0  0  0  0  0  0  0  0  0  0  0
   -1.9340  -55.3052  -22.5928 N   0  0  0  0  0  0  0  0  0  0  0  0
   -1.5141  -54.3726  -21.5843 C   0  0  0  0  0  0  0  0  0  0  0  0
   -1.9515  -54.4577  -20.4290 O   0  0  0  0  0  0  0  0  0  0  0  0
   -0.5806  -53.4382  -22.1780 C   0  0  0  0  0  0  0  0  0  0  0  0
    0.1345  -52.3551  -21.7199 C   0  0  0  0  0  0  0  0  0  0  0  0
    0.2659  -51.7416  -20.4821 C   0  0  0  0  0  0  0  0  0  0  0  0
   -0.2986  -51.9857  -19.2677 C   0  0  0  0  0  0  0  0  0  0  0  0
    0.0615  -51.1552  -18.1925 C   0  0  0  0  0  0  0  0  0  0  0  0
    0.9539  -50.1325  -18.3676 C   0  0  0  0  0  0  0  0  0  0  0  0
    1.5219  -49.8903  -19.5993 C   0  0  0  0  0  0  0  0  0  0  0  0
    1.1764  -50.6932  -20.6467 C   0  0  0  0  0  0  0  0  0  0  0  0
    1.5837  -50.6549  -21.9015 N   0  0  0  0  0  0  0  0  0  0  0  0
    0.9753  -51.6377  -22.5777 C   0  0  0  0  0  0  0  0  0  0  0  0
    1.0793  -52.0240  -23.8843 C   0  0  0  0  0  0  0  0  0  0  0  0
   -2.6000  -56.0984  -22.4899 H   0  0  0  0  0  0  0  0  0  0  0  0
    6.1284  -51.8464  -23.6020 C   0  0  0  0  0  0  0  0  0  0  0  0
    6.1284  -50.4148  -23.3659 N   0  0  0  0  0  0  0  0  0  0  0  0
    6.7144  -49.9958  -24.1288 H   0  0  0  0  0  0  0  0  0  0  0  0
    4.8511  -49.8666  -25.7626 O   0  0  0  0  0  0  0  0  0  0  0  0
    5.3358  -48.6171  -25.4667 C   0  0  0  0  0  0  0  0  0  0  0  0
 33 34  1  0  0  0
 34  1  1  0  0  0
  1  2  1  0  0  0
  2  3  1  0  0  0
  3  4  1  0  0  0
  4  5  1  0  0  0
  5  6  1  0  0  0
  5  7  1  0  0  0
  7 36  1  0  0  0
 36 37  1  0  0  0
  5  8  1  0  0  0
  8  9  1  0  0  0
  9 10  2  0  0  0
 10 11  1  0  0  0
 11 12  2  0  0  0
 12 13  1  0  0  0
 13 14  2  0  0  0
 14 15  1  0  0  0
 15 16  2  0  0  0
 16 17  1  0  0  0
 17 18  1  0  0  0
 18 19  1  0  0  0
 19 20  2  0  0  0
 19 21  1  0  0  0
 21 22  2  0  0  0
 22 23  1  0  0  0
 23 24  2  0  0  0
 24 25  1  0  0  0
 25 26  2  0  0  0
 26 27  1  0  0  0
 27 28  2  0  0  0
 28 29  1  0  0  0
 29 30  1  0  0  0
 30 31  2  0  0  0
  7  1  1  0  0  0
 31  8  1  0  0  0
 29  3  1  0  0  0
 14  9  1  0  0  0
 31 15  1  0  0  0
 21 16  1  0  0  0
 30 22  1  0  0  0
 28 23  1  0  0  0
 34 35  1  0  0  0
 18 32  1  0  0  0
M  END
> <minimizedAffinity>
-9.78964

> <CNNscore>
0.8061665893

> <CNNaffinity>
7.2526984215

> <CNN_VS>
5.8468832970

> <CNNaffinity_variance>
0.2186568528

$$$$
[H]c1c([H])c([H])c2c(c1[H])c1c3c(c4c5c([H])c([H])c([H])c([H])c5n5c4c1n2[C@@]1(C([H])([H])[H])O[C@]5([H])C([H])([H])[C@@]([H])(N([H])C([H])([H])[H])[C@]1([H])OC([H])([H])[H])C(=O)N([H])C3([H])[H]


 37 44  0  0  0  0  0  0  0  0999 V2000
    4.0222  -48.8089  -24.3166 C   0  0  0  0  0  0  0  0  0  0  0  0
    2.9337  -49.7719  -24.6696 C   0  0  0  0  0  0  0  0  0  0  0  0
    3.4924  -51.1555  -24.4304 C   0  0  0  0  0  0  0  0  0  0  0  0
    4.4028  -51.2558  -23.4681 O   0  0  0  0  0  0  0  0  0  0  0  0
    4.3481  -50.3619  -22.3787 C   0  0  0  0  0  0  0  0  0  0  0  0
    5.7370  -50.5913  -21.7497 C   0  0  0  0  0  0  0  0  0  0  0  0
    4.2517  -48.9496  -22.7961 C   0  0  0  0  0  0  0  0  0  0  0  0
    3.3499  -50.8084  -21.4252 N   0  0  0  0  0  0  0  0  0  0  0  0
    3.3370  -50.5470  -20.0865 C   0  0  0  0  0  0  0  0  0  0  0  0
    4.1322  -49.7850  -19.2926 C   0  0  0  0  0  0  0  0  0  0  0  0
    3.8786  -49.6805  -17.9407 C   0  0  0  0  0  0  0  0  0  0  0  0
    2.8268  -50.3295  -17.3377 C   0  0  0  0  0  0  0  0  0  0  0  0
    2.0211  -51.1073  -18.1765 C   0  0  0  0  0  0  0  0  0  0  0  0
    2.2820  -51.2014  -19.5067 C   0  0  0  0  0  0  0  0  0  0  0  0
    1.6246  -51.8751  -20.4924 C   0  0  0  0  0  0  0  0  0  0  0  0
    0.4995  -52.7002  -20.5287 C   0  0  0  0  0  0  0  0  0  0  0  0
   -0.3698  -53.1156  -19.4043 C   0  0  0  0  0  0  0  0  0  0  0  0
   -1.3715  -53.9606  -19.9788 N   0  0  0  0  0  0  0  0  0  0  0  0
   -1.1282  -54.0538  -21.3913 C   0  0  0  0  0  0  0  0  0  0  0  0
   -1.8698  -54.7340  -22.1128 O   0  0  0  0  0  0  0  0  0  0  0  0
    0.0409  -53.2620  -21.7127 C   0  0  0  0  0  0  0  0  0  0  0  0
    0.7348  -52.9772  -22.8668 C   0  0  0  0  0  0  0  0  0  0  0  0
    0.5663  -53.3193  -24.2010 C   0  0  0  0  0  0  0  0  0  0  0  0
   -0.3488  -54.0940  -24.8456 C   0  0  0  0  0  0  0  0  0  0  0  0
   -0.2313  -54.2348  -26.2391 C   0  0  0  0  0  0  0  0  0  0  0  0
    0.7760  -53.6090  -26.9224 C   0  0  0  0  0  0  0  0  0  0  0  0
    1.6994  -52.8263  -26.2643 C   0  0  0  0  0  0  0  0  0  0  0  0
    1.5904  -52.6858  -24.9117 C   0  0  0  0  0  0  0  0  0  0  0  0
    2.3463  -51.9969  -24.0775 N   0  0  0  0  0  0  0  0  0  0  0  0
    1.8639  -52.1516  -22.8379 C   0  0  0  0  0  0  0  0  0  0  0  0
    2.2753  -51.6282  -21.6445 C   0  0  0  0  0  0  0  0  0  0  0  0
   -2.1327  -54.4131  -19.4318 H   0  0  0  0  0  0  0  0  0  0  0  0
    3.5031  -47.3032  -26.0488 C   0  0  0  0  0  0  0  0  0  0  0  0
    3.6737  -47.4355  -24.6140 N   0  0  0  0  0  0  0  0  0  0  0  0
    2.7469  -47.1886  -24.1885 H   0  0  0  0  0  0  0  0  0  0  0  0
    5.3684  -48.1597  -22.5452 O   0  0  0  0  0  0  0  0  0  0  0  0
    5.1713  -47.1447  -21.6426 C   0  0  0  0  0  0  0  0  0  0  0  0
 33 34  1  0  0  0
 34  1  1  0  0  0
  1  2  1  0  0  0
  2  3  1  0  0  0
  3  4  1  0  0  0
  4  5  1  0  0  0
  5  6  1  0  0  0
  5  7  1  0  0  0
  7 36  1  0  0  0
 36 37  1  0  0  0
  5  8  1  0  0  0
  8  9  1  0  0  0
  9 10  2  0  0  0
 10 11  1  0  0  0
 11 12  2  0  0  0
 12 13  1  0  0  0
 13 14  2  0  0  0
 14 15  1  0  0  0
 15 16  2  0  0  0
 16 17  1  0  0  0
 17 18  1  0  0  0
 18 19  1  0  0  0
 19 20  2  0  0  0
 19 21  1  0  0  0
 21 22  2  0  0  0
 22 23  1  0  0  0
 23 24  2  0  0  0
 24 25  1  0  0  0
 25 26  2  0  0  0
 26 27  1  0  0  0
 27 28  2  0  0  0
 28 29  1  0  0  0
 29 30  1  0  0  0
 30 31  2  0  0  0
  7  1  1  0  0  0
 31  8  1  0  0  0
 29  3  1  0  0  0
 14  9  1  0  0  0
 31 15  1  0  0  0
 21 16  1  0  0  0
 30 22  1  0  0  0
 28 23  1  0  0  0
 34 35  1  0  0  0
 18 32  1  0  0  0
M  END
> <minimizedAffinity>
-10.00279

> <CNNscore>
0.5434132218

> <CNNaffinity>
6.7471799850

> <CNN_VS>
3.6665067673

> <CNNaffinity_variance>
0.1973543018

$$$$
[H]c1c([H])c([H])c2c(c1[H])c1c3c(c4c5c([H])c([H])c([H])c([H])c5n5c4c1n2[C@@]1(C([H])([H])[H])O[C@]5([H])C([H])([H])[C@@]([H])(N([H])C([H])([H])[H])[C@]1([H])OC([H])([H])[H])C(=O)N([H])C3([H])[H]


 37 44  0  0  0  0  0  0  0  0999 V2000
    4.1968  -50.7399  -24.4954 C   0  0  0  0  0  0  0  0  0  0  0  0
    4.0575  -50.3320  -23.0632 C   0  0  0  0  0  0  0  0  0  0  0  0
    2.8095  -49.4840  -22.9794 C   0  0  0  0  0  0  0  0  0  0  0  0
    1.8504  -49.7743  -23.8517 O   0  0  0  0  0  0  0  0  0  0  0  0
    1.7248  -51.1006  -24.3142 C   0  0  0  0  0  0  0  0  0  0  0  0
    0.7862  -50.8959  -25.5201 C   0  0  0  0  0  0  0  0  0  0  0  0
    2.9983  -51.6635  -24.8035 C   0  0  0  0  0  0  0  0  0  0  0  0
    1.0171  -51.8996  -23.3315 N   0  0  0  0  0  0  0  0  0  0  0  0
    0.2786  -53.0192  -23.5804 C   0  0  0  0  0  0  0  0  0  0  0  0
    0.0519  -53.7364  -24.7105 C   0  0  0  0  0  0  0  0  0  0  0  0
   -0.7419  -54.8642  -24.6773 C   0  0  0  0  0  0  0  0  0  0  0  0
   -1.3333  -55.3130  -23.5198 C   0  0  0  0  0  0  0  0  0  0  0  0
   -1.0837  -54.5582  -22.3684 C   0  0  0  0  0  0  0  0  0  0  0  0
   -0.2997  -53.4494  -22.4151 C   0  0  0  0  0  0  0  0  0  0  0  0
    0.0842  -52.5942  -21.4258 C   0  0  0  0  0  0  0  0  0  0  0  0
   -0.1694  -52.5083  -20.0559 C   0  0  0  0  0  0  0  0  0  0  0  0
   -1.0059  -53.3998  -19.2205 C   0  0  0  0  0  0  0  0  0  0  0  0
   -0.9345  -52.8692  -17.8935 N   0  0  0  0  0  0  0  0  0  0  0  0
   -0.0888  -51.7084  -17.9160 C   0  0  0  0  0  0  0  0  0  0  0  0
    0.1305  -51.0709  -16.8774 O   0  0  0  0  0  0  0  0  0  0  0  0
    0.3769  -51.5014  -19.2715 C   0  0  0  0  0  0  0  0  0  0  0  0
    1.1890  -50.5781  -19.8899 C   0  0  0  0  0  0  0  0  0  0  0  0
    1.9151  -49.4827  -19.4443 C   0  0  0  0  0  0  0  0  0  0  0  0
    2.0608  -48.9103  -18.2178 C   0  0  0  0  0  0  0  0  0  0  0  0
    2.8928  -47.7826  -18.1093 C   0  0  0  0  0  0  0  0  0  0  0  0
    3.5347  -47.2792  -19.2082 C   0  0  0  0  0  0  0  0  0  0  0  0
    3.3831  -47.8629  -20.4471 C   0  0  0  0  0  0  0  0  0  0  0  0
    2.5770  -48.9578  -20.5586 C   0  0  0  0  0  0  0  0  0  0  0  0
    2.2826  -49.6760  -21.6260 N   0  0  0  0  0  0  0  0  0  0  0  0
    1.4471  -50.6575  -21.2626 C   0  0  0  0  0  0  0  0  0  0  0  0
    0.8800  -51.6664  -21.9892 C   0  0  0  0  0  0  0  0  0  0  0  0
   -1.4267  -53.2836  -17.0753 H   0  0  0  0  0  0  0  0  0  0  0  0
    5.5630  -52.5105  -23.7635 C   0  0  0  0  0  0  0  0  0  0  0  0
    5.4248  -51.4611  -24.7560 N   0  0  0  0  0  0  0  0  0  0  0  0
    5.3789  -51.9461  -25.6853 H   0  0  0  0  0  0  0  0  0  0  0  0
    3.0827  -51.8861  -26.1736 O   0  0  0  0  0  0  0  0  0  0  0  0
    3.0726  -53.2061  -26.5495 C   0  0  0  0  0  0  0  0  0  0  0  0
 33 34  1  0  0  0
 34  1  1  0  0  0
  1  2  1  0  0  0
  2  3  1  0  0  0
  3  4  1  0  0  0
  4  5  1  0  0  0
  5  6  1  0  0  0
  5  7  1  0  0  0
  7 36  1  0  0  0
 36 37  1  0  0  0
  5  8  1  0  0  0
  8  9  1  0  0  0
  9 10  2  0  0  0
 10 11  1  0  0  0
 11 12  2  0  0  0
 12 13  1  0  0  0
 13 14  2  0  0  0
 14 15  1  0  0  0
 15 16  2  0  0  0
 16 17  1  0  0  0
 17 18  1  0  0  0
 18 19  1  0  0  0
 19 20  2  0  0  0
 19 21  1  0  0  0
 21 22  2  0  0  0
 22 23  1  0  0  0
 23 24  2  0  0  0
 24 25  1  0  0  0
 25 26  2  0  0  0
 26 27  1  0  0  0
 27 28  2  0  0  0
 28 29  1  0  0  0
 29 30  1  0  0  0
 30 31  2  0  0  0
  7  1  1  0  0  0
 31  8  1  0  0  0
 29  3  1  0  0  0
 14  9  1  0  0  0
 31 15  1  0  0  0
 21 16  1  0  0  0
 30 22  1  0  0  0
 28 23  1  0  0  0
 34 35  1  0  0  0
 18 32  1  0  0  0
M  END
> <minimizedAffinity>
-9.41803

> <CNNscore>
0.4238462150

> <CNNaffinity>
6.6502251625

> <CNN_VS>
2.8186726570

> <CNNaffinity_variance>
0.3115447760

$$$$
[H]c1c([H])c([H])c2c(c1[H])c1c3c(c4c5c([H])c([H])c([H])c([H])c5n5c4c1n2[C@@]1(C([H])([H])[H])O[C@]5([H])C([H])([H])[C@@]([H])(N([H])C([H])([H])[H])[C@]1([H])OC([H])([H])[H])C(=O)N([H])C3([H])[H]


 37 44  0  0  0  0  0  0  0  0999 V2000
   -1.3320  -52.2903  -21.0763 C   0  0  0  0  0  0  0  0  0  0  0  0
   -1.4608  -52.6140  -22.5308 C   0  0  0  0  0  0  0  0  0  0  0  0
   -1.2353  -51.3202  -23.2785 C   0  0  0  0  0  0  0  0  0  0  0  0
   -0.4201  -50.4475  -22.6964 O   0  0  0  0  0  0  0  0  0  0  0  0
    0.6145  -50.9262  -21.8662 C   0  0  0  0  0  0  0  0  0  0  0  0
    1.0344  -49.6255  -21.1526 C   0  0  0  0  0  0  0  0  0  0  0  0
    0.1407  -51.8851  -20.8493 C   0  0  0  0  0  0  0  0  0  0  0  0
    1.7327  -51.3678  -22.6782 N   0  0  0  0  0  0  0  0  0  0  0  0
    3.0414  -51.4125  -22.2959 C   0  0  0  0  0  0  0  0  0  0  0  0
    3.6612  -51.1622  -21.1142 C   0  0  0  0  0  0  0  0  0  0  0  0
    5.0283  -51.3037  -20.9963 C   0  0  0  0  0  0  0  0  0  0  0  0
    5.8200  -51.6988  -22.0490 C   0  0  0  0  0  0  0  0  0  0  0  0
    5.1583  -51.9521  -23.2556 C   0  0  0  0  0  0  0  0  0  0  0  0
    3.8110  -51.8090  -23.3579 C   0  0  0  0  0  0  0  0  0  0  0  0
    2.9760  -52.0197  -24.4143 C   0  0  0  0  0  0  0  0  0  0  0  0
    3.1577  -52.4261  -25.7372 C   0  0  0  0  0  0  0  0  0  0  0  0
    4.4232  -52.7680  -26.4259 C   0  0  0  0  0  0  0  0  0  0  0  0
    4.0561  -53.1131  -27.7651 N   0  0  0  0  0  0  0  0  0  0  0  0
    2.6301  -52.9921  -27.8882 C   0  0  0  0  0  0  0  0  0  0  0  0
    2.0691  -53.2420  -28.9634 O   0  0  0  0  0  0  0  0  0  0  0  0
    2.0905  -52.5634  -26.6146 C   0  0  0  0  0  0  0  0  0  0  0  0
    0.8299  -52.2858  -26.1369 C   0  0  0  0  0  0  0  0  0  0  0  0
   -0.4421  -52.3369  -26.6893 C   0  0  0  0  0  0  0  0  0  0  0  0
   -0.8955  -52.6616  -27.9312 C   0  0  0  0  0  0  0  0  0  0  0  0
   -2.2808  -52.6106  -28.1632 C   0  0  0  0  0  0  0  0  0  0  0  0
   -3.1436  -52.2444  -27.1660 C   0  0  0  0  0  0  0  0  0  0  0  0
   -2.6786  -51.9168  -25.9111 C   0  0  0  0  0  0  0  0  0  0  0  0
   -1.3350  -51.9645  -25.6797 C   0  0  0  0  0  0  0  0  0  0  0  0
   -0.6654  -51.6982  -24.5740 N   0  0  0  0  0  0  0  0  0  0  0  0
    0.6401  -51.8773  -24.8124 C   0  0  0  0  0  0  0  0  0  0  0  0
    1.7260  -51.7538  -23.9920 C   0  0  0  0  0  0  0  0  0  0  0  0
    4.7372  -53.3993  -28.4983 H   0  0  0  0  0  0  0  0  0  0  0  0
   -1.4402  -54.6388  -20.9747 C   0  0  0  0  0  0  0  0  0  0  0  0
   -1.6466  -53.4158  -20.2216 N   0  0  0  0  0  0  0  0  0  0  0  0
   -0.9833  -53.4606  -19.4098 H   0  0  0  0  0  0  0  0  0  0  0  0
    0.1738  -51.4448  -19.5305 O   0  0  0  0  0  0  0  0  0  0  0  0
    1.1764  -51.9832  -18.7632 C   0  0  0  0  0  0  0  0  0  0  0  0
 33 34  1  0  0  0
 34  1  1  0  0  0
  1  2  1  0  0  0
  2  3  1  0  0  0
  3  4  1  0  0  0
  4  5  1  0  0  0
  5  6  1  0  0  0
  5  7  1  0  0  0
  7 36  1  0  0  0
 36 37  1  0  0  0
  5  8  1  0  0  0
  8  9  1  0  0  0
  9 10  2  0  0  0
 10 11  1  0  0  0
 11 12  2  0  0  0
 12 13  1  0  0  0
 13 14  2  0  0  0
 14 15  1  0  0  0
 15 16  2  0  0  0
 16 17  1  0  0  0
 17 18  1  0  0  0
 18 19  1  0  0  0
 19 20  2  0  0  0
 19 21  1  0  0  0
 21 22  2  0  0  0
 22 23  1  0  0  0
 23 24  2  0  0  0
 24 25  1  0  0  0
 25 26  2  0  0  0
 26 27  1  0  0  0
 27 28  2  0  0  0
 28 29  1  0  0  0
 29 30  1  0  0  0
 30 31  2  0  0  0
  7  1  1  0  0  0
 31  8  1  0  0  0
 29  3  1  0  0  0
 14  9  1  0  0  0
 31 15  1  0  0  0
 21 16  1  0  0  0
 30 22  1  0  0  0
 28 23  1  0  0  0
 34 35  1  0  0  0
 18 32  1  0  0  0
M  END
> <minimizedAffinity>
-0.70003

> <CNNscore>
0.3644975126

> <CNNaffinity>
6.7340035439

> <CNN_VS>
2.4545276165

> <CNNaffinity_variance>
0.2412439883

$$$$
[H]c1c([H])c([H])c2c(c1[H])c1c3c(c4c5c([H])c([H])c([H])c([H])c5n5c4c1n2[C@@]1(C([H])([H])[H])O[C@]5([H])C([H])([H])[C@@]([H])(N([H])C([H])([H])[H])[C@]1([H])OC([H])([H])[H])C(=O)N([H])C3([H])[H]


 37 44  0  0  0  0  0  0  0  0999 V2000
    3.8108  -51.5847  -25.1495 C   0  0  0  0  0  0  0  0  0  0  0  0
    3.9672  -50.7201  -23.9392 C   0  0  0  0  0  0  0  0  0  0  0  0
    2.8051  -49.7541  -23.9506 C   0  0  0  0  0  0  0  0  0  0  0  0
    1.6842  -50.2006  -24.5065 O   0  0  0  0  0  0  0  0  0  0  0  0
    1.4020  -51.5816  -24.4632 C   0  0  0  0  0  0  0  0  0  0  0  0
    0.2646  -51.6744  -25.5001 C   0  0  0  0  0  0  0  0  0  0  0  0
    2.5277  -52.4149  -24.9286 C   0  0  0  0  0  0  0  0  0  0  0  0
    0.8509  -51.9311  -23.1675 N   0  0  0  0  0  0  0  0  0  0  0  0
    0.0193  -52.9786  -22.8986 C   0  0  0  0  0  0  0  0  0  0  0  0
   -0.4554  -53.9935  -23.6652 C   0  0  0  0  0  0  0  0  0  0  0  0
   -1.2882  -54.9504  -23.1234 C   0  0  0  0  0  0  0  0  0  0  0  0
   -1.6733  -54.9276  -21.8035 C   0  0  0  0  0  0  0  0  0  0  0  0
   -1.1702  -53.8731  -21.0337 C   0  0  0  0  0  0  0  0  0  0  0  0
   -0.3505  -52.9372  -21.5800 C   0  0  0  0  0  0  0  0  0  0  0  0
    0.2592  -51.8566  -21.0159 C   0  0  0  0  0  0  0  0  0  0  0  0
    0.2742  -51.3014  -19.7354 C   0  0  0  0  0  0  0  0  0  0  0  0
   -0.4360  -51.7708  -18.5240 C   0  0  0  0  0  0  0  0  0  0  0  0
   -0.0864  -50.8494  -17.4866 N   0  0  0  0  0  0  0  0  0  0  0  0
    0.8012  -49.8638  -18.0380 C   0  0  0  0  0  0  0  0  0  0  0  0
    1.2470  -48.9526  -17.3279 O   0  0  0  0  0  0  0  0  0  0  0  0
    1.0126  -50.1636  -19.4389 C   0  0  0  0  0  0  0  0  0  0  0  0
    1.7416  -49.5909  -20.4563 C   0  0  0  0  0  0  0  0  0  0  0  0
    2.5969  -48.5008  -20.5326 C   0  0  0  0  0  0  0  0  0  0  0  0
    3.0026  -47.5813  -19.6144 C   0  0  0  0  0  0  0  0  0  0  0  0
    3.8997  -46.5826  -20.0310 C   0  0  0  0  0  0  0  0  0  0  0  0
    4.3484  -46.5409  -21.3233 C   0  0  0  0  0  0  0  0  0  0  0  0
    3.9339  -47.4744  -22.2481 C   0  0  0  0  0  0  0  0  0  0  0  0
    3.0634  -48.4463  -21.8496 C   0  0  0  0  0  0  0  0  0  0  0  0
    2.5342  -49.4339  -22.5470 N   0  0  0  0  0  0  0  0  0  0  0  0
    1.7307  -50.1414  -21.7424 C   0  0  0  0  0  0  0  0  0  0  0  0
    0.9829  -51.2599  -21.9812 C   0  0  0  0  0  0  0  0  0  0  0  0
   -0.4366  -50.9159  -16.5087 H   0  0  0  0  0  0  0  0  0  0  0  0
    5.7796  -52.4222  -24.1697 C   0  0  0  0  0  0  0  0  0  0  0  0
    4.9267  -52.4869  -25.3418 N   0  0  0  0  0  0  0  0  0  0  0  0
    4.5933  -53.4800  -25.4024 H   0  0  0  0  0  0  0  0  0  0  0  0
    2.3393  -53.0791  -26.1358 O   0  0  0  0  0  0  0  0  0  0  0  0
    2.7415  -52.3854  -27.2497 C   0  0  0  0  0  0  0  0  0  0  0  0
 33 34  1  0  0  0
 34  1  1  0  0  0
  1  2  1  0  0  0
  2  3  1  0  0  0
  3  4  1  0  0  0
  4  5  1  0  0  0
  5  6  1  0  0  0
  5  7  1  0  0  0
  7 36  1  0  0  0
 36 37  1  0  0  0
  5  8  1  0  0  0
  8  9  1  0  0  0
  9 10  2  0  0  0
 10 11  1  0  0  0
 11 12  2  0  0  0
 12 13  1  0  0  0
 13 14  2  0  0  0
 14 15  1  0  0  0
 15 16  2  0  0  0
 16 17  1  0  0  0
 17 18  1  0  0  0
 18 19  1  0  0  0
 19 20  2  0  0  0
 19 21  1  0  0  0
 21 22  2  0  0  0
 22 23  1  0  0  0
 23 24  2  0  0  0
 24 25  1  0  0  0
 25 26  2  0  0  0
 26 27  1  0  0  0
 27 28  2  0  0  0
 28 29  1  0  0  0
 29 30  1  0  0  0
 30 31  2  0  0  0
  7  1  1  0  0  0
 31  8  1  0  0  0
 29  3  1  0  0  0
 14  9  1  0  0  0
 31 15  1  0  0  0
 21 16  1  0  0  0
 30 22  1  0  0  0
 28 23  1  0  0  0
 34 35  1  0  0  0
 18 32  1  0  0  0
M  END
> <minimizedAffinity>
-9.78404

> <CNNscore>
0.3434253633

> <CNNaffinity>
6.4683914185

> <CNN_VS>
2.2214095592

> <CNNaffinity_variance>
0.3253847957

$$$$
[H]c1c([H])c([H])c2c(c1[H])c1c3c(c4c5c([H])c([H])c([H])c([H])c5n5c4c1n2[C@@]1(C([H])([H])[H])O[C@]5([H])C([H])([H])[C@@]([H])(N([H])C([H])([H])[H])[C@]1([H])OC([H])([H])[H])C(=O)N([H])C3([H])[H]


 37 44  0  0  0  0  0  0  0  0999 V2000
   -0.4085  -52.1349  -19.0677 C   0  0  0  0  0  0  0  0  0  0  0  0
   -0.1696  -52.7646  -20.4032 C   0  0  0  0  0  0  0  0  0  0  0  0
   -0.2941  -51.6590  -21.4258 C   0  0  0  0  0  0  0  0  0  0  0  0
    0.0508  -50.4443  -21.0127 O   0  0  0  0  0  0  0  0  0  0  0  0
    1.0334  -50.3162  -20.0094 C   0  0  0  0  0  0  0  0  0  0  0  0
    0.8412  -48.8403  -19.6067 C   0  0  0  0  0  0  0  0  0  0  0  0
    0.7660  -51.1611  -18.8293 C   0  0  0  0  0  0  0  0  0  0  0  0
    2.3544  -50.4482  -20.5944 N   0  0  0  0  0  0  0  0  0  0  0  0
    3.5110  -49.9124  -20.1083 C   0  0  0  0  0  0  0  0  0  0  0  0
    3.7955  -49.2153  -18.9786 C   0  0  0  0  0  0  0  0  0  0  0  0
    5.0842  -48.7969  -18.7194 C   0  0  0  0  0  0  0  0  0  0  0  0
    6.1285  -49.0595  -19.5748 C   0  0  0  0  0  0  0  0  0  0  0  0
    5.8105  -49.7802  -20.7312 C   0  0  0  0  0  0  0  0  0  0  0  0
    4.5369  -50.1865  -20.9742 C   0  0  0  0  0  0  0  0  0  0  0  0
    4.0193  -50.9053  -22.0101 C   0  0  0  0  0  0  0  0  0  0  0  0
    4.5513  -51.4648  -23.1728 C   0  0  0  0  0  0  0  0  0  0  0  0
    5.9520  -51.4261  -23.6515 C   0  0  0  0  0  0  0  0  0  0  0  0
    5.9598  -52.1435  -24.8895 N   0  0  0  0  0  0  0  0  0  0  0  0
    4.6251  -52.6038  -25.1535 C   0  0  0  0  0  0  0  0  0  0  0  0
    4.3766  -53.2570  -26.1757 O   0  0  0  0  0  0  0  0  0  0  0  0
    3.7640  -52.1707  -24.0727 C   0  0  0  0  0  0  0  0  0  0  0  0
    2.4257  -52.3075  -23.7816 C   0  0  0  0  0  0  0  0  0  0  0  0
    1.3653  -52.9495  -24.4053 C   0  0  0  0  0  0  0  0  0  0  0  0
    1.2702  -53.6620  -25.5614 C   0  0  0  0  0  0  0  0  0  0  0  0
    0.0158  -54.1916  -25.9101 C   0  0  0  0  0  0  0  0  0  0  0  0
   -1.0744  -53.9933  -25.1069 C   0  0  0  0  0  0  0  0  0  0  0  0
   -0.9719  -53.2710  -23.9380 C   0  0  0  0  0  0  0  0  0  0  0  0
    0.2431  -52.7546  -23.5942 C   0  0  0  0  0  0  0  0  0  0  0  0
    0.5806  -52.0390  -22.5378 N   0  0  0  0  0  0  0  0  0  0  0  0
    1.8854  -51.7488  -22.6184 C   0  0  0  0  0  0  0  0  0  0  0  0
    2.7042  -51.0595  -21.7687 C   0  0  0  0  0  0  0  0  0  0  0  0
    6.8104  -52.2867  -25.4721 H   0  0  0  0  0  0  0  0  0  0  0  0
   -1.6647  -52.9036  -17.2324 C   0  0  0  0  0  0  0  0  0  0  0  0
   -0.4434  -53.1015  -17.9904 N   0  0  0  0  0  0  0  0  0  0  0  0
   -0.4942  -54.0780  -18.3711 H   0  0  0  0  0  0  0  0  0  0  0  0
    0.4205  -50.4897  -17.6614 O   0  0  0  0  0  0  0  0  0  0  0  0
    1.3139  -50.6238  -16.6282 C   0  0  0  0  0  0  0  0  0  0  0  0
 33 34  1  0  0  0
 34  1  1  0  0  0
  1  2  1  0  0  0
  2  3  1  0  0  0
  3  4  1  0  0  0
  4  5  1  0  0  0
  5  6  1  0  0  0
  5  7  1  0  0  0
  7 36  1  0  0  0
 36 37  1  0  0  0
  5  8  1  0  0  0
  8  9  1  0  0  0
  9 10  2  0  0  0
 10 11  1  0  0  0
 11 12  2  0  0  0
 12 13  1  0  0  0
 13 14  2  0  0  0
 14 15  1  0  0  0
 15 16  2  0  0  0
 16 17  1  0  0  0
 17 18  1  0  0  0
 18 19  1  0  0  0
 19 20  2  0  0  0
 19 21  1  0  0  0
 21 22  2  0  0  0
 22 23  1  0  0  0
 23 24  2  0  0  0
 24 25  1  0  0  0
 25 26  2  0  0  0
 26 27  1  0  0  0
 27 28  2  0  0  0
 28 29  1  0  0  0
 29 30  1  0  0  0
 30 31  2  0  0  0
  7  1  1  0  0  0
 31  8  1  0  0  0
 29  3  1  0  0  0
 14  9  1  0  0  0
 31 15  1  0  0  0
 21 16  1  0  0  0
 30 22  1  0  0  0
 28 23  1  0  0  0
 34 35  1  0  0  0
 18 32  1  0  0  0
M  END
> <minimizedAffinity>
-8.31530

> <CNNscore>
0.3119793534

> <CNNaffinity>
6.4630990028

> <CNN_VS>
2.0163533688

> <CNNaffinity_variance>
0.1616125554

$$$$
[H]c1c([H])c([H])c2c(c1[H])c1c3c(c4c5c([H])c([H])c([H])c([H])c5n5c4c1n2[C@@]1(C([H])([H])[H])O[C@]5([H])C([H])([H])[C@@]([H])(N([H])C([H])([H])[H])[C@]1([H])OC([H])([H])[H])C(=O)N([H])C3([H])[H]


 37 44  0  0  0  0  0  0  0  0999 V2000
    3.6663  -48.2345  -19.4426 C   0  0  0  0  0  0  0  0  0  0  0  0
    3.3668  -48.9573  -20.7173 C   0  0  0  0  0  0  0  0  0  0  0  0
    3.9111  -50.3575  -20.5531 C   0  0  0  0  0  0  0  0  0  0  0  0
    3.9162  -50.8370  -19.3141 O   0  0  0  0  0  0  0  0  0  0  0  0
    2.9340  -50.3933  -18.4047 C   0  0  0  0  0  0  0  0  0  0  0  0
    3.5287  -50.8943  -17.0734 C   0  0  0  0  0  0  0  0  0  0  0  0
    2.8267  -48.9226  -18.3444 C   0  0  0  0  0  0  0  0  0  0  0  0
    1.6925  -51.1083  -18.6332 N   0  0  0  0  0  0  0  0  0  0  0  0
    0.7150  -51.3456  -17.7118 C   0  0  0  0  0  0  0  0  0  0  0  0
    0.5566  -50.9559  -16.4211 C   0  0  0  0  0  0  0  0  0  0  0  0
   -0.5619  -51.3335  -15.7073 C   0  0  0  0  0  0  0  0  0  0  0  0
   -1.5565  -52.1090  -16.2555 C   0  0  0  0  0  0  0  0  0  0  0  0
   -1.3713  -52.4968  -17.5870 C   0  0  0  0  0  0  0  0  0  0  0  0
   -0.2649  -52.1177  -18.2786 C   0  0  0  0  0  0  0  0  0  0  0  0
    0.0997  -52.3622  -19.5689 C   0  0  0  0  0  0  0  0  0  0  0  0
   -0.4718  -53.0688  -20.6283 C   0  0  0  0  0  0  0  0  0  0  0  0
   -1.7465  -53.8221  -20.6465 C   0  0  0  0  0  0  0  0  0  0  0  0
   -1.8621  -54.3590  -21.9677 N   0  0  0  0  0  0  0  0  0  0  0  0
   -0.7122  -53.9486  -22.7244 C   0  0  0  0  0  0  0  0  0  0  0  0
   -0.5843  -54.2905  -23.9076 O   0  0  0  0  0  0  0  0  0  0  0  0
    0.1404  -53.1464  -21.8721 C   0  0  0  0  0  0  0  0  0  0  0  0
    1.3427  -52.4965  -22.0349 C   0  0  0  0  0  0  0  0  0  0  0  0
    2.2090  -52.3281  -23.1058 C   0  0  0  0  0  0  0  0  0  0  0  0
    2.1853  -52.7781  -24.3903 C   0  0  0  0  0  0  0  0  0  0  0  0
    3.2454  -52.4133  -25.2381 C   0  0  0  0  0  0  0  0  0  0  0  0
    4.2688  -51.6287  -24.7798 C   0  0  0  0  0  0  0  0  0  0  0  0
    4.2872  -51.1764  -23.4784 C   0  0  0  0  0  0  0  0  0  0  0  0
    3.2609  -51.5270  -22.6508 C   0  0  0  0  0  0  0  0  0  0  0  0
    3.0645  -51.2182  -21.3828 N   0  0  0  0  0  0  0  0  0  0  0  0
    1.9219  -51.7870  -20.9774 C   0  0  0  0  0  0  0  0  0  0  0  0
    1.2791  -51.7464  -19.7721 C   0  0  0  0  0  0  0  0  0  0  0  0
   -2.6609  -54.9440  -22.2888 H   0  0  0  0  0  0  0  0  0  0  0  0
    3.9291  -46.2441  -20.6699 C   0  0  0  0  0  0  0  0  0  0  0  0
    3.3105  -46.8321  -19.4965 N   0  0  0  0  0  0  0  0  0  0  0  0
    2.2757  -46.7178  -19.6270 H   0  0  0  0  0  0  0  0  0  0  0  0
    3.2547  -48.3256  -17.1635 O   0  0  0  0  0  0  0  0  0  0  0  0
    2.2592  -47.7705  -16.3990 C   0  0  0  0  0  0  0  0  0  0  0  0
 33 34  1  0  0  0
 34  1  1  0  0  0
  1  2  1  0  0  0
  2  3  1  0  0  0
  3  4  1  0  0  0
  4  5  1  0  0  0
  5  6  1  0  0  0
  5  7  1  0  0  0
  7 36  1  0  0  0
 36 37  1  0  0  0
  5  8  1  0  0  0
  8  9  1  0  0  0
  9 10  2  0  0  0
 10 11  1  0  0  0
 11 12  2  0  0  0
 12 13  1  0  0  0
 13 14  2  0  0  0
 14 15  1  0  0  0
 15 16  2  0  0  0
 16 17  1  0  0  0
 17 18  1  0  0  0
 18 19  1  0  0  0
 19 20  2  0  0  0
 19 21  1  0  0  0
 21 22  2  0  0  0
 22 23  1  0  0  0
 23 24  2  0  0  0
 24 25  1  0  0  0
 25 26  2  0  0  0
 26 27  1  0  0  0
 27 28  2  0  0  0
 28 29  1  0  0  0
 29 30  1  0  0  0
 30 31  2  0  0  0
  7  1  1  0  0  0
 31  8  1  0  0  0
 29  3  1  0  0  0
 14  9  1  0  0  0
 31 15  1  0  0  0
 21 16  1  0  0  0
 30 22  1  0  0  0
 28 23  1  0  0  0
 34 35  1  0  0  0
 18 32  1  0  0  0
M  END
> <minimizedAffinity>
-9.38804

> <CNNscore>
0.3092059493

> <CNNaffinity>
6.3736886978

> <CNN_VS>
1.9707825184

> <CNNaffinity_variance>
0.0799244046

$$$$
[H]c1c([H])c([H])c2c(c1[H])c1c3c(c4c5c([H])c([H])c([H])c([H])c5n5c4c1n2[C@@]1(C([H])([H])[H])O[C@]5([H])C([H])([H])[C@@]([H])(N([H])C([H])([H])[H])[C@]1([H])OC([H])([H])[H])C(=O)N([H])C3([H])[H]


 37 44  0  0  0  0  0  0  0  0999 V2000
    1.5599  -49.3260  -21.7044 C   0  0  0  0  0  0  0  0  0  0  0  0
    2.1841  -48.9256  -20.4055 C   0  0  0  0  0  0  0  0  0  0  0  0
    1.1452  -48.1177  -19.6628 C   0  0  0  0  0  0  0  0  0  0  0  0
   -0.1214  -48.4363  -19.9061 O   0  0  0  0  0  0  0  0  0  0  0  0
   -0.4372  -49.7650  -20.2578 C   0  0  0  0  0  0  0  0  0  0  0  0
   -1.8746  -49.5876  -20.7865 C   0  0  0  0  0  0  0  0  0  0  0  0
    0.4028  -50.2864  -21.3535 C   0  0  0  0  0  0  0  0  0  0  0  0
   -0.5015  -50.5880  -19.0647 N   0  0  0  0  0  0  0  0  0  0  0  0
   -1.2314  -51.7298  -18.9088 C   0  0  0  0  0  0  0  0  0  0  0  0
   -2.0000  -52.4515  -19.7641 C   0  0  0  0  0  0  0  0  0  0  0  0
   -2.6283  -53.6038  -19.3394 C   0  0  0  0  0  0  0  0  0  0  0  0
   -2.5108  -54.0735  -18.0523 C   0  0  0  0  0  0  0  0  0  0  0  0
   -1.7127  -53.3135  -17.1902 C   0  0  0  0  0  0  0  0  0  0  0  0
   -1.0993  -52.1804  -17.6216 C   0  0  0  0  0  0  0  0  0  0  0  0
   -0.2746  -51.3156  -16.9662 C   0  0  0  0  0  0  0  0  0  0  0  0
    0.2278  -51.2405  -15.6661 C   0  0  0  0  0  0  0  0  0  0  0  0
   -0.0211  -52.1597  -14.5323 C   0  0  0  0  0  0  0  0  0  0  0  0
    0.7237  -51.6299  -13.4314 N   0  0  0  0  0  0  0  0  0  0  0  0
    1.4010  -50.4429  -13.8737 C   0  0  0  0  0  0  0  0  0  0  0  0
    2.1171  -49.8009  -13.0937 O   0  0  0  0  0  0  0  0  0  0  0  0
    1.0788  -50.2184  -15.2675 C   0  0  0  0  0  0  0  0  0  0  0  0
    1.4202  -49.2687  -16.2034 C   0  0  0  0  0  0  0  0  0  0  0  0
    2.2436  -48.1519  -16.1859 C   0  0  0  0  0  0  0  0  0  0  0  0
    2.9977  -47.5777  -15.2087 C   0  0  0  0  0  0  0  0  0  0  0  0
    3.7330  -46.4245  -15.5329 C   0  0  0  0  0  0  0  0  0  0  0  0
    3.6880  -45.8989  -16.7957 C   0  0  0  0  0  0  0  0  0  0  0  0
    2.9227  -46.4845  -17.7805 C   0  0  0  0  0  0  0  0  0  0  0  0
    2.2069  -47.6041  -17.4719 C   0  0  0  0  0  0  0  0  0  0  0  0
    1.4139  -48.3290  -18.2383 N   0  0  0  0  0  0  0  0  0  0  0  0
    0.9199  -49.3371  -17.5081 C   0  0  0  0  0  0  0  0  0  0  0  0
    0.0818  -50.3619  -17.8466 C   0  0  0  0  0  0  0  0  0  0  0  0
    0.7461  -52.0612  -12.4844 H   0  0  0  0  0  0  0  0  0  0  0  0
    2.9893  -51.1848  -21.9021 C   0  0  0  0  0  0  0  0  0  0  0  0
    2.4856  -50.0076  -22.5846 N   0  0  0  0  0  0  0  0  0  0  0  0
    1.9912  -50.3589  -23.4408 H   0  0  0  0  0  0  0  0  0  0  0  0
   -0.2402  -50.5035  -22.5674 O   0  0  0  0  0  0  0  0  0  0  0  0
   -1.4692  -51.1074  -22.4741 C   0  0  0  0  0  0  0  0  0  0  0  0
 33 34  1  0  0  0
 34  1  1  0  0  0
  1  2  1  0  0  0
  2  3  1  0  0  0
  3  4  1  0  0  0
  4  5  1  0  0  0
  5  6  1  0  0  0
  5  7  1  0  0  0
  7 36  1  0  0  0
 36 37  1  0  0  0
  5  8  1  0  0  0
  8  9  1  0  0  0
  9 10  2  0  0  0
 10 11  1  0  0  0
 11 12  2  0  0  0
 12 13  1  0  0  0
 13 14  2  0  0  0
 14 15  1  0  0  0
 15 16  2  0  0  0
 16 17  1  0  0  0
 17 18  1  0  0  0
 18 19  1  0  0  0
 19 20  2  0  0  0
 19 21  1  0  0  0
 21 22  2  0  0  0
 22 23  1  0  0  0
 23 24  2  0  0  0
 24 25  1  0  0  0
 25 26  2  0  0  0
 26 27  1  0  0  0
 27 28  2  0  0  0
 28 29  1  0  0  0
 29 30  1  0  0  0
 30 31  2  0  0  0
  7  1  1  0  0  0
 31  8  1  0  0  0
 29  3  1  0  0  0
 14  9  1  0  0  0
 31 15  1  0  0  0
 21 16  1  0  0  0
 30 22  1  0  0  0
 28 23  1  0  0  0
 34 35  1  0  0  0
 18 32  1  0  0  0
M  END
> <minimizedAffinity>
15.94749

> <CNNscore>
0.2380643189

> <CNNaffinity>
5.6847438812

> <CNN_VS>
1.3533346653

> <CNNaffinity_variance>
0.6082228422

$$$$
[H]c1c([H])c([H])c2c(c1[H])c(C([H])([H])[C@@]([H])(C(=O)N([H])[C@]([H])(C(=O)N([H])[C@]([H])(C(=O)N([H])[C@]([H])(C(=O)N([H])[H])C([H])([H])C([H])([H])C([H])([H])C([H])([H])N([H])[H])C([H])([H])c1c([H])n([H])c3c([H])c([H])c([H])c([H])c13)C([H])([H])C([H])([H])C([H])([H])N=C(N([H])[H])N([H])[H])N([H])C(=O)[C@@]([H])(N([H])[H])C([H])([H])C([H])(C([H])([H])[H])C([H])([H])[H])c([H])n2[H]


 73 76  0  0  0  0  0  0  0  0999 V2000
    0.6178  -51.6514  -21.5277 C   0  0  0  0  0  0  0  0  0  0  0  0
    1.5226  -51.3495  -23.7899 C   0  0  0  0  0  0  0  0  0  0  0  0
    0.3374  -51.3320  -24.1650 O   0  0  0  0  0  0  0  0  0  0  0  0
    1.7654  -51.4864  -22.3648 N   0  0  0  0  0  0  0  0  0  0  0  0
    2.7353  -51.4206  -22.0541 H   0  0  0  0  0  0  0  0  0  0  0  0
    2.6035  -51.2532  -24.7928 C   0  0  0  0  0  0  0  0  0  0  0  0
    2.0695  -52.3769  -26.9060 C   0  0  0  0  0  0  0  0  0  0  0  0
    2.7801  -53.2992  -26.2304 O   0  0  0  0  0  0  0  0  0  0  0  0
    1.9462  -51.2137  -26.1340 N   0  0  0  0  0  0  0  0  0  0  0  0
    1.4704  -50.3597  -26.4117 H   0  0  0  0  0  0  0  0  0  0  0  0
    1.6758  -52.8696  -28.1791 C   0  0  0  0  0  0  0  0  0  0  0  0
    2.5770  -54.1105  -28.4531 N   0  0  0  0  0  0  0  0  0  0  0  0
    2.2291  -54.8247  -27.7618 H   0  0  0  0  0  0  0  0  0  0  0  0
    3.5473  -53.7839  -28.2692 H   0  0  0  0  0  0  0  0  0  0  0  0
    0.3858  -53.3396  -28.6197 C   0  0  0  0  0  0  0  0  0  0  0  0
   -1.9038  -53.0571  -29.5405 C   0  0  0  0  0  0  0  0  0  0  0  0
   -0.8330  -52.5448  -28.6677 C   0  0  0  0  0  0  0  0  0  0  0  0
   -1.4322  -52.3681  -27.2512 C   0  0  0  0  0  0  0  0  0  0  0  0
    3.5183  -50.1512  -24.5501 C   0  0  0  0  0  0  0  0  0  0  0  0
    4.9169  -50.6011  -24.2725 C   0  0  0  0  0  0  0  0  0  0  0  0
    5.3998  -51.8821  -24.1930 C   0  0  0  0  0  0  0  0  0  0  0  0
    6.7147  -51.7717  -23.9281 N   0  0  0  0  0  0  0  0  0  0  0  0
    7.0791  -50.4889  -23.8374 C   0  0  0  0  0  0  0  0  0  0  0  0
    8.3037  -49.8932  -23.5838 C   0  0  0  0  0  0  0  0  0  0  0  0
    8.3741  -48.5180  -23.5487 C   0  0  0  0  0  0  0  0  0  0  0  0
    7.2475  -47.7239  -23.7623 C   0  0  0  0  0  0  0  0  0  0  0  0
    6.0369  -48.3286  -24.0136 C   0  0  0  0  0  0  0  0  0  0  0  0
    5.9436  -49.6998  -24.0543 C   0  0  0  0  0  0  0  0  0  0  0  0
    7.3242  -52.6071  -23.8158 H   0  0  0  0  0  0  0  0  0  0  0  0
    0.5173  -50.4811  -20.6235 C   0  0  0  0  0  0  0  0  0  0  0  0
    0.5132  -49.2875  -20.8866 O   0  0  0  0  0  0  0  0  0  0  0  0
    0.4453  -50.8599  -19.2685 N   0  0  0  0  0  0  0  0  0  0  0  0
    0.3804  -51.9084  -19.0406 H   0  0  0  0  0  0  0  0  0  0  0  0
    0.4493  -50.0298  -18.0811 C   0  0  0  0  0  0  0  0  0  0  0  0
    1.7556  -49.3080  -18.0452 C   0  0  0  0  0  0  0  0  0  0  0  0
    2.6960  -49.9933  -17.4719 O   0  0  0  0  0  0  0  0  0  0  0  0
    2.1074  -48.0506  -18.5301 N   0  0  0  0  0  0  0  0  0  0  0  0
    1.3759  -47.4554  -18.9764 H   0  0  0  0  0  0  0  0  0  0  0  0
    3.4519  -47.5186  -18.4429 C   0  0  0  0  0  0  0  0  0  0  0  0
    3.6660  -46.7346  -17.2372 C   0  0  0  0  0  0  0  0  0  0  0  0
    2.8392  -45.6043  -16.8633 N   0  0  0  0  0  0  0  0  0  0  0  0
    4.5962  -46.9425  -16.3683 O   0  0  0  0  0  0  0  0  0  0  0  0
    2.2965  -45.6021  -15.9705 H   0  0  0  0  0  0  0  0  0  0  0  0
    2.7593  -44.7677  -17.4589 H   0  0  0  0  0  0  0  0  0  0  0  0
    3.8345  -46.8021  -19.6766 C   0  0  0  0  0  0  0  0  0  0  0  0
    4.7733  -47.6728  -20.4580 C   0  0  0  0  0  0  0  0  0  0  0  0
    4.1208  -48.9305  -20.9065 C   0  0  0  0  0  0  0  0  0  0  0  0
    4.9878  -50.1230  -20.5480 C   0  0  0  0  0  0  0  0  0  0  0  0
    6.3447  -49.6767  -20.4283 N   0  0  0  0  0  0  0  0  0  0  0  0
    6.3710  -48.6732  -20.1549 H   0  0  0  0  0  0  0  0  0  0  0  0
    6.8403  -50.2476  -19.7298 H   0  0  0  0  0  0  0  0  0  0  0  0
    0.4542  -50.9849  -16.8740 C   0  0  0  0  0  0  0  0  0  0  0  0
   -0.8951  -51.6058  -16.7319 C   0  0  0  0  0  0  0  0  0  0  0  0
   -1.3280  -52.8124  -17.2436 C   0  0  0  0  0  0  0  0  0  0  0  0
   -2.5981  -53.0335  -16.8929 N   0  0  0  0  0  0  0  0  0  0  0  0
   -3.0557  -51.9890  -16.1341 C   0  0  0  0  0  0  0  0  0  0  0  0
   -4.2597  -51.7404  -15.5290 C   0  0  0  0  0  0  0  0  0  0  0  0
   -4.4131  -50.5780  -14.8080 C   0  0  0  0  0  0  0  0  0  0  0  0
   -3.3408  -49.6951  -14.7178 C   0  0  0  0  0  0  0  0  0  0  0  0
   -2.1446  -49.9454  -15.3220 C   0  0  0  0  0  0  0  0  0  0  0  0
   -1.9917  -51.0951  -16.0350 C   0  0  0  0  0  0  0  0  0  0  0  0
   -3.1744  -53.8742  -17.1503 H   0  0  0  0  0  0  0  0  0  0  0  0
    0.8356  -52.9026  -20.6900 C   0  0  0  0  0  0  0  0  0  0  0  0
   -0.1898  -53.9371  -20.6312 C   0  0  0  0  0  0  0  0  0  0  0  0
   -1.3552  -53.8799  -21.5533 C   0  0  0  0  0  0  0  0  0  0  0  0
   -1.4647  -55.1190  -22.3360 N   0  0  0  0  0  0  0  0  0  0  0  0
   -1.1681  -55.0987  -23.5771 C   0  0  0  0  0  0  0  0  0  0  0  0
   -0.7395  -53.9386  -24.2384 N   0  0  0  0  0  0  0  0  0  0  0  0
   -1.2768  -56.3240  -24.3140 N   0  0  0  0  0  0  0  0  0  0  0  0
    0.0174  -54.0553  -24.9784 H   0  0  0  0  0  0  0  0  0  0  0  0
   -1.1183  -53.0065  -24.0565 H   0  0  0  0  0  0  0  0  0  0  0  0
   -2.0703  -56.5123  -24.9268 H   0  0  0  0  0  0  0  0  0  0  0  0
   -0.5250  -57.0540  -24.2321 H   0  0  0  0  0  0  0  0  0  0  0  0
 16 17  1  0  0  0
 17 18  1  0  0  0
 17 15  1  0  0  0
 15 11  1  0  0  0
 11 12  1  0  0  0
 11  7  1  0  0  0
  7  8  2  0  0  0
  7  9  1  0  0  0
  9  6  1  0  0  0
  6 19  1  0  0  0
 19 20  1  0  0  0
 20 21  2  0  0  0
 21 22  1  0  0  0
 22 23  1  0  0  0
 23 24  2  0  0  0
 24 25  1  0  0  0
 25 26  2  0  0  0
 26 27  1  0  0  0
 27 28  2  0  0  0
  6  2  1  0  0  0
  2  3  2  0  0  0
  2  4  1  0  0  0
  4  1  1  0  0  0
  1 63  1  0  0  0
 63 64  1  0  0  0
 64 65  1  0  0  0
 65 66  1  0  0  0
 66 67  2  0  0  0
 67 68  1  0  0  0
 67 69  1  0  0  0
  1 30  1  0  0  0
 30 31  2  0  0  0
 30 32  1  0  0  0
 32 34  1  0  0  0
 34 52  1  0  0  0
 52 53  1  0  0  0
 53 54  2  0  0  0
 54 55  1  0  0  0
 55 56  1  0  0  0
 56 57  2  0  0  0
 57 58  1  0  0  0
 58 59  2  0  0  0
 59 60  1  0  0  0
 60 61  2  0  0  0
 34 35  1  0  0  0
 35 36  2  0  0  0
 35 37  1  0  0  0
 37 39  1  0  0  0
 39 45  1  0  0  0
 45 46  1  0  0  0
 46 47  1  0  0  0
 47 48  1  0  0  0
 48 49  1  0  0  0
 39 40  1  0  0  0
 40 41  1  0  0  0
 40 42  2  0  0  0
 28 20  1  0  0  0
 61 53  1  0  0  0
 28 23  1  0  0  0
 61 56  1  0  0  0
 12 13  1  0  0  0
 12 14  1  0  0  0
  9 10  1  0  0  0
 22 29  1  0  0  0
  4  5  1  0  0  0
 68 70  1  0  0  0
 68 71  1  0  0  0
 69 72  1  0  0  0
 69 73  1  0  0  0
 32 33  1  0  0  0
 55 62  1  0  0  0
 37 38  1  0  0  0
 49 50  1  0  0  0
 49 51  1  0  0  0
 41 43  1  0  0  0
 41 44  1  0  0  0
M  END
> <minimizedAffinity>
-8.49980

> <CNNscore>
0.7174546719

> <CNNaffinity>
8.2417716980

> <CNN_VS>
5.9130973816

> <CNNaffinity_variance>
0.8363686800

$$$$
[H]c1c([H])c([H])c2c(c1[H])c(C([H])([H])[C@@]([H])(C(=O)N([H])[C@]([H])(C(=O)N([H])[C@]([H])(C(=O)N([H])[C@]([H])(C(=O)N([H])[H])C([H])([H])C([H])([H])C([H])([H])C([H])([H])N([H])[H])C([H])([H])c1c([H])n([H])c3c([H])c([H])c([H])c([H])c13)C([H])([H])C([H])([H])C([H])([H])N=C(N([H])[H])N([H])[H])N([H])C(=O)[C@@]([H])(N([H])[H])C([H])([H])C([H])(C([H])([H])[H])C([H])([H])[H])c([H])n2[H]


 73 76  0  0  0  0  0  0  0  0999 V2000
    0.5710  -50.7293  -20.8225 C   0  0  0  0  0  0  0  0  0  0  0  0
    0.9272  -51.0921  -23.2243 C   0  0  0  0  0  0  0  0  0  0  0  0
   -0.2641  -51.4463  -23.2565 O   0  0  0  0  0  0  0  0  0  0  0  0
    1.4546  -50.6540  -21.9442 N   0  0  0  0  0  0  0  0  0  0  0  0
    2.4080  -50.2899  -21.9389 H   0  0  0  0  0  0  0  0  0  0  0  0
    1.7367  -51.1525  -24.4591 C   0  0  0  0  0  0  0  0  0  0  0  0
    1.3503  -53.0866  -25.9163 C   0  0  0  0  0  0  0  0  0  0  0  0
    2.4834  -53.4062  -25.2636 O   0  0  0  0  0  0  0  0  0  0  0  0
    0.8974  -51.8296  -25.4932 N   0  0  0  0  0  0  0  0  0  0  0  0
    0.0721  -51.3453  -25.8357 H   0  0  0  0  0  0  0  0  0  0  0  0
    0.9774  -54.1150  -26.8229 C   0  0  0  0  0  0  0  0  0  0  0  0
    0.0381  -55.0673  -26.0241 N   0  0  0  0  0  0  0  0  0  0  0  0
   -0.8337  -54.4932  -25.8850 H   0  0  0  0  0  0  0  0  0  0  0  0
    0.5512  -55.2743  -25.1432 H   0  0  0  0  0  0  0  0  0  0  0  0
    0.2904  -54.0161  -28.0868 C   0  0  0  0  0  0  0  0  0  0  0  0
   -0.4535  -52.7466  -30.0880 C   0  0  0  0  0  0  0  0  0  0  0  0
   -0.3281  -52.8114  -28.6214 C   0  0  0  0  0  0  0  0  0  0  0  0
   -1.7415  -52.6056  -28.0242 C   0  0  0  0  0  0  0  0  0  0  0  0
    2.2553  -49.8600  -24.8720 C   0  0  0  0  0  0  0  0  0  0  0  0
    3.3383  -49.3499  -23.9762 C   0  0  0  0  0  0  0  0  0  0  0  0
    3.3250  -48.2410  -23.1696 C   0  0  0  0  0  0  0  0  0  0  0  0
    4.5246  -48.2056  -22.5605 N   0  0  0  0  0  0  0  0  0  0  0  0
    5.2873  -49.2340  -22.9442 C   0  0  0  0  0  0  0  0  0  0  0  0
    6.5740  -49.6096  -22.5946 C   0  0  0  0  0  0  0  0  0  0  0  0
    7.1097  -50.7418  -23.1675 C   0  0  0  0  0  0  0  0  0  0  0  0
    6.3879  -51.5084  -24.0822 C   0  0  0  0  0  0  0  0  0  0  0  0
    5.1103  -51.1242  -24.4206 C   0  0  0  0  0  0  0  0  0  0  0  0
    4.5551  -49.9980  -23.8603 C   0  0  0  0  0  0  0  0  0  0  0  0
    4.7769  -47.4532  -21.8881 H   0  0  0  0  0  0  0  0  0  0  0  0
    0.8803  -49.6122  -19.8985 C   0  0  0  0  0  0  0  0  0  0  0  0
    1.3188  -48.4969  -20.1388 O   0  0  0  0  0  0  0  0  0  0  0  0
    0.6392  -49.9522  -18.5528 N   0  0  0  0  0  0  0  0  0  0  0  0
    0.1904  -50.9068  -18.3463 H   0  0  0  0  0  0  0  0  0  0  0  0
    0.9142  -49.1928  -17.3500 C   0  0  0  0  0  0  0  0  0  0  0  0
    2.3676  -48.8519  -17.3596 C   0  0  0  0  0  0  0  0  0  0  0  0
    3.1104  -49.7923  -16.8631 O   0  0  0  0  0  0  0  0  0  0  0  0
    3.0263  -47.7134  -17.8178 N   0  0  0  0  0  0  0  0  0  0  0  0
    2.4653  -46.9222  -18.2022 H   0  0  0  0  0  0  0  0  0  0  0  0
    4.4671  -47.5680  -17.7850 C   0  0  0  0  0  0  0  0  0  0  0  0
    4.9140  -46.6602  -16.7408 C   0  0  0  0  0  0  0  0  0  0  0  0
    5.7132  -47.0803  -15.6068 N   0  0  0  0  0  0  0  0  0  0  0  0
    4.6624  -45.3961  -16.6940 O   0  0  0  0  0  0  0  0  0  0  0  0
    6.6647  -46.6832  -15.4381 H   0  0  0  0  0  0  0  0  0  0  0  0
    5.3734  -47.7788  -14.9302 H   0  0  0  0  0  0  0  0  0  0  0  0
    5.0105  -47.2327  -19.1171 C   0  0  0  0  0  0  0  0  0  0  0  0
    6.4820  -46.9774  -18.9775 C   0  0  0  0  0  0  0  0  0  0  0  0
    7.2914  -48.1526  -19.3930 C   0  0  0  0  0  0  0  0  0  0  0  0
    8.5957  -48.1862  -18.6185 C   0  0  0  0  0  0  0  0  0  0  0  0
    8.4083  -47.4803  -17.3851 N   0  0  0  0  0  0  0  0  0  0  0  0
    7.4100  -47.5210  -17.0949 H   0  0  0  0  0  0  0  0  0  0  0  0
    9.0070  -47.8883  -16.6540 H   0  0  0  0  0  0  0  0  0  0  0  0
    0.7069  -50.1523  -16.1643 C   0  0  0  0  0  0  0  0  0  0  0  0
   -0.7119  -50.0731  -15.7091 C   0  0  0  0  0  0  0  0  0  0  0  0
   -1.3009  -49.0836  -14.9482 C   0  0  0  0  0  0  0  0  0  0  0  0
   -2.5943  -49.3576  -14.7560 N   0  0  0  0  0  0  0  0  0  0  0  0
   -2.9151  -50.5326  -15.3826 C   0  0  0  0  0  0  0  0  0  0  0  0
   -4.0880  -51.2317  -15.4976 C   0  0  0  0  0  0  0  0  0  0  0  0
   -4.0944  -52.4037  -16.2194 C   0  0  0  0  0  0  0  0  0  0  0  0
   -2.9103  -52.8388  -16.8076 C   0  0  0  0  0  0  0  0  0  0  0  0
   -1.7449  -52.1410  -16.6901 C   0  0  0  0  0  0  0  0  0  0  0  0
   -1.7377  -50.9813  -15.9769 C   0  0  0  0  0  0  0  0  0  0  0  0
   -3.2770  -48.7730  -14.2105 H   0  0  0  0  0  0  0  0  0  0  0  0
    0.8427  -52.0459  -20.1103 C   0  0  0  0  0  0  0  0  0  0  0  0
   -0.2215  -53.0290  -19.9483 C   0  0  0  0  0  0  0  0  0  0  0  0
   -0.0347  -54.4147  -20.4549 C   0  0  0  0  0  0  0  0  0  0  0  0
   -1.1578  -54.8133  -21.3151 N   0  0  0  0  0  0  0  0  0  0  0  0
   -1.0053  -54.8011  -22.5821 C   0  0  0  0  0  0  0  0  0  0  0  0
    0.1943  -54.4202  -23.2008 N   0  0  0  0  0  0  0  0  0  0  0  0
   -2.1153  -55.2024  -23.3964 N   0  0  0  0  0  0  0  0  0  0  0  0
    0.4826  -54.9615  -24.0715 H   0  0  0  0  0  0  0  0  0  0  0  0
    0.7882  -53.6565  -22.8701 H   0  0  0  0  0  0  0  0  0  0  0  0
   -2.7053  -54.5197  -23.8722 H   0  0  0  0  0  0  0  0  0  0  0  0
   -2.3359  -56.2231  -23.5167 H   0  0  0  0  0  0  0  0  0  0  0  0
 16 17  1  0  0  0
 17 18  1  0  0  0
 17 15  1  0  0  0
 15 11  1  0  0  0
 11 12  1  0  0  0
 11  7  1  0  0  0
  7  8  2  0  0  0
  7  9  1  0  0  0
  9  6  1  0  0  0
  6 19  1  0  0  0
 19 20  1  0  0  0
 20 21  2  0  0  0
 21 22  1  0  0  0
 22 23  1  0  0  0
 23 24  2  0  0  0
 24 25  1  0  0  0
 25 26  2  0  0  0
 26 27  1  0  0  0
 27 28  2  0  0  0
  6  2  1  0  0  0
  2  3  2  0  0  0
  2  4  1  0  0  0
  4  1  1  0  0  0
  1 63  1  0  0  0
 63 64  1  0  0  0
 64 65  1  0  0  0
 65 66  1  0  0  0
 66 67  2  0  0  0
 67 68  1  0  0  0
 67 69  1  0  0  0
  1 30  1  0  0  0
 30 31  2  0  0  0
 30 32  1  0  0  0
 32 34  1  0  0  0
 34 52  1  0  0  0
 52 53  1  0  0  0
 53 54  2  0  0  0
 54 55  1  0  0  0
 55 56  1  0  0  0
 56 57  2  0  0  0
 57 58  1  0  0  0
 58 59  2  0  0  0
 59 60  1  0  0  0
 60 61  2  0  0  0
 34 35  1  0  0  0
 35 36  2  0  0  0
 35 37  1  0  0  0
 37 39  1  0  0  0
 39 45  1  0  0  0
 45 46  1  0  0  0
 46 47  1  0  0  0
 47 48  1  0  0  0
 48 49  1  0  0  0
 39 40  1  0  0  0
 40 41  1  0  0  0
 40 42  2  0  0  0
 28 20  1  0  0  0
 61 53  1  0  0  0
 28 23  1  0  0  0
 61 56  1  0  0  0
 12 13  1  0  0  0
 12 14  1  0  0  0
  9 10  1  0  0  0
 22 29  1  0  0  0
  4  5  1  0  0  0
 68 70  1  0  0  0
 68 71  1  0  0  0
 69 72  1  0  0  0
 69 73  1  0  0  0
 32 33  1  0  0  0
 55 62  1  0  0  0
 37 38  1  0  0  0
 49 50  1  0  0  0
 49 51  1  0  0  0
 41 43  1  0  0  0
 41 44  1  0  0  0
M  END
> <minimizedAffinity>
-7.07766

> <CNNscore>
0.2874011993

> <CNNaffinity>
7.6297073364

> <CNN_VS>
2.1927869320

> <CNNaffinity_variance>
0.6416663527

$$$$
[H]c1c([H])c([H])c2c(c1[H])c(C([H])([H])[C@@]([H])(C(=O)N([H])[C@]([H])(C(=O)N([H])[C@]([H])(C(=O)N([H])[C@]([H])(C(=O)N([H])[H])C([H])([H])C([H])([H])C([H])([H])C([H])([H])N([H])[H])C([H])([H])c1c([H])n([H])c3c([H])c([H])c([H])c([H])c13)C([H])([H])C([H])([H])C([H])([H])N=C(N([H])[H])N([H])[H])N([H])C(=O)[C@@]([H])(N([H])[H])C([H])([H])C([H])(C([H])([H])[H])C([H])([H])[H])c([H])n2[H]


 73 76  0  0  0  0  0  0  0  0999 V2000
   -0.1426  -52.6366  -23.1627 C   0  0  0  0  0  0  0  0  0  0  0  0
    1.6791  -51.8320  -24.5985 C   0  0  0  0  0  0  0  0  0  0  0  0
    0.8115  -51.1404  -25.1595 O   0  0  0  0  0  0  0  0  0  0  0  0
    1.2519  -52.6521  -23.4789 N   0  0  0  0  0  0  0  0  0  0  0  0
    1.9806  -53.1562  -22.9724 H   0  0  0  0  0  0  0  0  0  0  0  0
    3.0685  -51.8023  -25.1007 C   0  0  0  0  0  0  0  0  0  0  0  0
    3.5683  -49.7859  -26.4036 C   0  0  0  0  0  0  0  0  0  0  0  0
    3.2359  -50.6920  -27.3420 O   0  0  0  0  0  0  0  0  0  0  0  0
    3.4862  -50.3681  -25.1314 N   0  0  0  0  0  0  0  0  0  0  0  0
    3.6977  -49.9095  -24.2495 H   0  0  0  0  0  0  0  0  0  0  0  0
    3.8981  -48.5372  -26.9957 C   0  0  0  0  0  0  0  0  0  0  0  0
    4.3753  -48.8643  -28.4422 N   0  0  0  0  0  0  0  0  0  0  0  0
    3.4940  -49.1751  -28.9277 H   0  0  0  0  0  0  0  0  0  0  0  0
    5.0820  -49.6191  -28.3279 H   0  0  0  0  0  0  0  0  0  0  0  0
    3.0661  -47.3800  -27.2149 C   0  0  0  0  0  0  0  0  0  0  0  0
    2.4505  -45.9017  -29.1138 C   0  0  0  0  0  0  0  0  0  0  0  0
    3.4104  -46.2361  -28.0471 C   0  0  0  0  0  0  0  0  0  0  0  0
    3.6078  -44.9660  -27.1842 C   0  0  0  0  0  0  0  0  0  0  0  0
    3.9691  -52.6646  -24.3555 C   0  0  0  0  0  0  0  0  0  0  0  0
    5.2113  -51.9648  -23.9051 C   0  0  0  0  0  0  0  0  0  0  0  0
    6.3967  -51.8155  -24.5783 C   0  0  0  0  0  0  0  0  0  0  0  0
    7.2043  -51.1109  -23.7642 N   0  0  0  0  0  0  0  0  0  0  0  0
    6.5863  -50.8123  -22.6173 C   0  0  0  0  0  0  0  0  0  0  0  0
    7.0070  -50.1156  -21.4964 C   0  0  0  0  0  0  0  0  0  0  0  0
    6.1306  -49.9664  -20.4444 C   0  0  0  0  0  0  0  0  0  0  0  0
    4.8416  -50.4974  -20.4874 C   0  0  0  0  0  0  0  0  0  0  0  0
    4.4360  -51.1872  -21.6073 C   0  0  0  0  0  0  0  0  0  0  0  0
    5.2940  -51.3475  -22.6697 C   0  0  0  0  0  0  0  0  0  0  0  0
    8.1756  -50.8589  -24.0383 H   0  0  0  0  0  0  0  0  0  0  0  0
   -0.3066  -52.1874  -21.7597 C   0  0  0  0  0  0  0  0  0  0  0  0
   -1.0258  -52.6296  -20.8759 O   0  0  0  0  0  0  0  0  0  0  0  0
    0.4894  -51.0634  -21.4641 N   0  0  0  0  0  0  0  0  0  0  0  0
    1.1717  -50.7158  -22.2185 H   0  0  0  0  0  0  0  0  0  0  0  0
    0.5363  -50.2624  -20.2577 C   0  0  0  0  0  0  0  0  0  0  0  0
    1.2017  -48.9717  -20.6042 C   0  0  0  0  0  0  0  0  0  0  0  0
    0.4101  -48.1418  -21.2100 O   0  0  0  0  0  0  0  0  0  0  0  0
    2.5036  -48.5347  -20.3717 N   0  0  0  0  0  0  0  0  0  0  0  0
    3.1809  -49.1796  -19.9092 H   0  0  0  0  0  0  0  0  0  0  0  0
    2.9726  -47.2163  -20.7462 C   0  0  0  0  0  0  0  0  0  0  0  0
    3.2471  -47.1039  -22.1696 C   0  0  0  0  0  0  0  0  0  0  0  0
    4.3335  -47.8000  -22.8300 N   0  0  0  0  0  0  0  0  0  0  0  0
    2.5731  -46.3881  -23.0045 O   0  0  0  0  0  0  0  0  0  0  0  0
    4.1504  -48.4873  -23.5954 H   0  0  0  0  0  0  0  0  0  0  0  0
    5.3181  -47.6418  -22.5719 H   0  0  0  0  0  0  0  0  0  0  0  0
    4.1030  -46.7806  -19.9010 C   0  0  0  0  0  0  0  0  0  0  0  0
    3.5508  -46.0631  -18.7050 C   0  0  0  0  0  0  0  0  0  0  0  0
    4.6193  -45.4001  -17.9129 C   0  0  0  0  0  0  0  0  0  0  0  0
    4.9085  -46.2005  -16.6567 C   0  0  0  0  0  0  0  0  0  0  0  0
    6.1050  -46.9606  -16.8694 N   0  0  0  0  0  0  0  0  0  0  0  0
    6.7166  -46.4831  -17.5624 H   0  0  0  0  0  0  0  0  0  0  0  0
    6.6057  -47.0814  -15.9783 H   0  0  0  0  0  0  0  0  0  0  0  0
    1.4840  -50.9852  -19.2837 C   0  0  0  0  0  0  0  0  0  0  0  0
    1.1554  -50.5807  -17.8856 C   0  0  0  0  0  0  0  0  0  0  0  0
    1.8379  -49.6909  -17.0810 C   0  0  0  0  0  0  0  0  0  0  0  0
    1.2297  -49.5793  -15.8967 N   0  0  0  0  0  0  0  0  0  0  0  0
    0.1214  -50.3837  -15.8696 C   0  0  0  0  0  0  0  0  0  0  0  0
   -0.8314  -50.6173  -14.9129 C   0  0  0  0  0  0  0  0  0  0  0  0
   -1.8543  -51.4942  -15.1946 C   0  0  0  0  0  0  0  0  0  0  0  0
   -1.8864  -52.1135  -16.4407 C   0  0  0  0  0  0  0  0  0  0  0  0
   -0.9361  -51.8793  -17.3898 C   0  0  0  0  0  0  0  0  0  0  0  0
    0.0759  -51.0117  -17.1124 C   0  0  0  0  0  0  0  0  0  0  0  0
    1.5392  -48.9722  -15.0962 H   0  0  0  0  0  0  0  0  0  0  0  0
   -0.6581  -54.0627  -23.2858 C   0  0  0  0  0  0  0  0  0  0  0  0
   -0.4053  -54.8354  -24.4958 C   0  0  0  0  0  0  0  0  0  0  0  0
   -0.5968  -54.2076  -25.8304 C   0  0  0  0  0  0  0  0  0  0  0  0
    0.5246  -54.5274  -26.7250 N   0  0  0  0  0  0  0  0  0  0  0  0
    0.8410  -53.7016  -27.6450 C   0  0  0  0  0  0  0  0  0  0  0  0
    0.1626  -52.4909  -27.8475 N   0  0  0  0  0  0  0  0  0  0  0  0
    1.9441  -54.0361  -28.4980 N   0  0  0  0  0  0  0  0  0  0  0  0
    0.7502  -51.6483  -28.1287 H   0  0  0  0  0  0  0  0  0  0  0  0
   -0.8494  -52.3821  -27.7511 H   0  0  0  0  0  0  0  0  0  0  0  0
    1.8018  -54.4000  -29.4402 H   0  0  0  0  0  0  0  0  0  0  0  0
    2.9297  -53.9050  -28.1569 H   0  0  0  0  0  0  0  0  0  0  0  0
 16 17  1  0  0  0
 17 18  1  0  0  0
 17 15  1  0  0  0
 15 11  1  0  0  0
 11 12  1  0  0  0
 11  7  1  0  0  0
  7  8  2  0  0  0
  7  9  1  0  0  0
  9  6  1  0  0  0
  6 19  1  0  0  0
 19 20  1  0  0  0
 20 21  2  0  0  0
 21 22  1  0  0  0
 22 23  1  0  0  0
 23 24  2  0  0  0
 24 25  1  0  0  0
 25 26  2  0  0  0
 26 27  1  0  0  0
 27 28  2  0  0  0
  6  2  1  0  0  0
  2  3  2  0  0  0
  2  4  1  0  0  0
  4  1  1  0  0  0
  1 63  1  0  0  0
 63 64  1  0  0  0
 64 65  1  0  0  0
 65 66  1  0  0  0
 66 67  2  0  0  0
 67 68  1  0  0  0
 67 69  1  0  0  0
  1 30  1  0  0  0
 30 31  2  0  0  0
 30 32  1  0  0  0
 32 34  1  0  0  0
 34 52  1  0  0  0
 52 53  1  0  0  0
 53 54  2  0  0  0
 54 55  1  0  0  0
 55 56  1  0  0  0
 56 57  2  0  0  0
 57 58  1  0  0  0
 58 59  2  0  0  0
 59 60  1  0  0  0
 60 61  2  0  0  0
 34 35  1  0  0  0
 35 36  2  0  0  0
 35 37  1  0  0  0
 37 39  1  0  0  0
 39 45  1  0  0  0
 45 46  1  0  0  0
 46 47  1  0  0  0
 47 48  1  0  0  0
 48 49  1  0  0  0
 39 40  1  0  0  0
 40 41  1  0  0  0
 40 42  2  0  0  0
 28 20  1  0  0  0
 61 53  1  0  0  0
 28 23  1  0  0  0
 61 56  1  0  0  0
 12 13  1  0  0  0
 12 14  1  0  0  0
  9 10  1  0  0  0
 22 29  1  0  0  0
  4  5  1  0  0  0
 68 70  1  0  0  0
 68 71  1  0  0  0
 69 72  1  0  0  0
 69 73  1  0  0  0
 32 33  1  0  0  0
 55 62  1  0  0  0
 37 38  1  0  0  0
 49 50  1  0  0  0
 49 51  1  0  0  0
 41 43  1  0  0  0
 41 44  1  0  0  0
M  END
> <minimizedAffinity>
-7.08830

> <CNNscore>
0.2766419053

> <CNNaffinity>
7.5852065086

> <CNN_VS>
2.0983860493

> <CNNaffinity_variance>
0.8664525151

$$$$
[H]c1c([H])c([H])c2c(c1[H])c(C([H])([H])[C@@]([H])(C(=O)N([H])[C@]([H])(C(=O)N([H])[C@]([H])(C(=O)N([H])[C@]([H])(C(=O)N([H])[H])C([H])([H])C([H])([H])C([H])([H])C([H])([H])N([H])[H])C([H])([H])c1c([H])n([H])c3c([H])c([H])c([H])c([H])c13)C([H])([H])C([H])([H])C([H])([H])N=C(N([H])[H])N([H])[H])N([H])C(=O)[C@@]([H])(N([H])[H])C([H])([H])C([H])(C([H])([H])[H])C([H])([H])[H])c([H])n2[H]


 73 76  0  0  0  0  0  0  0  0999 V2000
    0.9195  -52.1295  -20.8083 C   0  0  0  0  0  0  0  0  0  0  0  0
    1.7077  -50.8134  -22.7251 C   0  0  0  0  0  0  0  0  0  0  0  0
    0.8970  -49.9484  -22.3506 O   0  0  0  0  0  0  0  0  0  0  0  0
    1.8085  -52.0196  -21.9230 N   0  0  0  0  0  0  0  0  0  0  0  0
    2.5301  -52.6907  -22.1886 H   0  0  0  0  0  0  0  0  0  0  0  0
    2.4971  -50.5858  -23.9534 C   0  0  0  0  0  0  0  0  0  0  0  0
    2.1354  -51.9347  -25.9691 C   0  0  0  0  0  0  0  0  0  0  0  0
    3.3496  -52.3280  -25.5414 O   0  0  0  0  0  0  0  0  0  0  0  0
    1.6212  -50.9583  -25.1051 N   0  0  0  0  0  0  0  0  0  0  0  0
    0.7286  -50.4826  -25.2043 H   0  0  0  0  0  0  0  0  0  0  0  0
    1.7642  -52.6257  -27.1537 C   0  0  0  0  0  0  0  0  0  0  0  0
    3.0202  -53.4418  -27.5822 N   0  0  0  0  0  0  0  0  0  0  0  0
    3.0946  -54.1862  -26.8409 H   0  0  0  0  0  0  0  0  0  0  0  0
    3.8026  -52.7566  -27.5712 H   0  0  0  0  0  0  0  0  0  0  0  0
    0.7062  -53.5831  -27.3613 C   0  0  0  0  0  0  0  0  0  0  0  0
   -1.4350  -52.3472  -27.1205 C   0  0  0  0  0  0  0  0  0  0  0  0
   -0.6110  -53.2838  -27.9046 C   0  0  0  0  0  0  0  0  0  0  0  0
   -0.4991  -52.7152  -29.3401 C   0  0  0  0  0  0  0  0  0  0  0  0
    3.0522  -49.2464  -24.0417 C   0  0  0  0  0  0  0  0  0  0  0  0
    4.4227  -49.2184  -24.6387 C   0  0  0  0  0  0  0  0  0  0  0  0
    4.7882  -48.8863  -25.9180 C   0  0  0  0  0  0  0  0  0  0  0  0
    6.1275  -49.0090  -25.9695 N   0  0  0  0  0  0  0  0  0  0  0  0
    6.6185  -49.4007  -24.7897 C   0  0  0  0  0  0  0  0  0  0  0  0
    7.9129  -49.6559  -24.3677 C   0  0  0  0  0  0  0  0  0  0  0  0
    8.1159  -50.0555  -23.0653 C   0  0  0  0  0  0  0  0  0  0  0  0
    7.0536  -50.2053  -22.1739 C   0  0  0  0  0  0  0  0  0  0  0  0
    5.7724  -49.9482  -22.6060 C   0  0  0  0  0  0  0  0  0  0  0  0
    5.5465  -49.5471  -23.9017 C   0  0  0  0  0  0  0  0  0  0  0  0
    6.6635  -48.8142  -26.8394 H   0  0  0  0  0  0  0  0  0  0  0  0
    1.5236  -51.4316  -19.6485 C   0  0  0  0  0  0  0  0  0  0  0  0
    2.5154  -51.7172  -18.9936 O   0  0  0  0  0  0  0  0  0  0  0  0
    0.7881  -50.2908  -19.2715 N   0  0  0  0  0  0  0  0  0  0  0  0
   -0.0439  -50.0008  -19.8872 H   0  0  0  0  0  0  0  0  0  0  0  0
    0.9767  -49.4096  -18.1370 C   0  0  0  0  0  0  0  0  0  0  0  0
    2.2803  -48.7077  -18.3286 C   0  0  0  0  0  0  0  0  0  0  0  0
    3.1662  -49.0356  -17.4397 O   0  0  0  0  0  0  0  0  0  0  0  0
    2.6785  -47.7886  -19.2965 N   0  0  0  0  0  0  0  0  0  0  0  0
    1.9898  -47.4781  -20.0160 H   0  0  0  0  0  0  0  0  0  0  0  0
    4.0148  -47.2323  -19.3545 C   0  0  0  0  0  0  0  0  0  0  0  0
    4.1546  -46.0282  -18.5517 C   0  0  0  0  0  0  0  0  0  0  0  0
    3.0565  -45.1248  -18.2704 N   0  0  0  0  0  0  0  0  0  0  0  0
    5.2479  -45.6226  -18.0003 O   0  0  0  0  0  0  0  0  0  0  0  0
    2.7423  -44.9427  -17.2908 H   0  0  0  0  0  0  0  0  0  0  0  0
    2.5514  -44.6318  -19.0207 H   0  0  0  0  0  0  0  0  0  0  0  0
    4.4707  -47.0566  -20.7485 C   0  0  0  0  0  0  0  0  0  0  0  0
    3.2740  -46.7661  -21.6050 C   0  0  0  0  0  0  0  0  0  0  0  0
    3.5190  -45.6339  -22.5360 C   0  0  0  0  0  0  0  0  0  0  0  0
    2.4604  -45.6154  -23.6228 C   0  0  0  0  0  0  0  0  0  0  0  0
    2.4736  -44.3246  -24.2459 N   0  0  0  0  0  0  0  0  0  0  0  0
    3.4192  -43.8975  -24.1699 H   0  0  0  0  0  0  0  0  0  0  0  0
    2.2020  -44.4108  -25.2350 H   0  0  0  0  0  0  0  0  0  0  0  0
    1.1529  -50.3109  -16.9017 C   0  0  0  0  0  0  0  0  0  0  0  0
   -0.1415  -50.3942  -16.1642 C   0  0  0  0  0  0  0  0  0  0  0  0
   -0.5833  -49.5827  -15.1389 C   0  0  0  0  0  0  0  0  0  0  0  0
   -1.8013  -49.9621  -14.7422 N   0  0  0  0  0  0  0  0  0  0  0  0
   -2.2168  -51.0332  -15.4881 C   0  0  0  0  0  0  0  0  0  0  0  0
   -3.3705  -51.7724  -15.4863 C   0  0  0  0  0  0  0  0  0  0  0  0
   -3.4984  -52.8059  -16.3865 C   0  0  0  0  0  0  0  0  0  0  0  0
   -2.4523  -53.0648  -17.2675 C   0  0  0  0  0  0  0  0  0  0  0  0
   -1.3054  -52.3277  -17.2657 C   0  0  0  0  0  0  0  0  0  0  0  0
   -1.1781  -51.3049  -16.3760 C   0  0  0  0  0  0  0  0  0  0  0  0
   -2.3696  -49.5188  -13.9768 H   0  0  0  0  0  0  0  0  0  0  0  0
    0.7803  -53.6073  -20.4748 C   0  0  0  0  0  0  0  0  0  0  0  0
   -0.5395  -54.2170  -20.3677 C   0  0  0  0  0  0  0  0  0  0  0  0
   -1.5610  -53.9640  -21.4186 C   0  0  0  0  0  0  0  0  0  0  0  0
   -1.6572  -55.1046  -22.3405 N   0  0  0  0  0  0  0  0  0  0  0  0
   -1.1474  -55.0065  -23.5063 C   0  0  0  0  0  0  0  0  0  0  0  0
   -0.4941  -53.8500  -23.9565 N   0  0  0  0  0  0  0  0  0  0  0  0
   -1.2493  -56.1377  -24.3816 N   0  0  0  0  0  0  0  0  0  0  0  0
    0.3649  -53.9879  -24.5708 H   0  0  0  0  0  0  0  0  0  0  0  0
   -0.8021  -52.9001  -23.7375 H   0  0  0  0  0  0  0  0  0  0  0  0
   -1.9383  -56.1735  -25.1330 H   0  0  0  0  0  0  0  0  0  0  0  0
   -0.6016  -56.9564  -24.2586 H   0  0  0  0  0  0  0  0  0  0  0  0
 16 17  1  0  0  0
 17 18  1  0  0  0
 17 15  1  0  0  0
 15 11  1  0  0  0
 11 12  1  0  0  0
 11  7  1  0  0  0
  7  8  2  0  0  0
  7  9  1  0  0  0
  9  6  1  0  0  0
  6 19  1  0  0  0
 19 20  1  0  0  0
 20 21  2  0  0  0
 21 22  1  0  0  0
 22 23  1  0  0  0
 23 24  2  0  0  0
 24 25  1  0  0  0
 25 26  2  0  0  0
 26 27  1  0  0  0
 27 28  2  0  0  0
  6  2  1  0  0  0
  2  3  2  0  0  0
  2  4  1  0  0  0
  4  1  1  0  0  0
  1 63  1  0  0  0
 63 64  1  0  0  0
 64 65  1  0  0  0
 65 66  1  0  0  0
 66 67  2  0  0  0
 67 68  1  0  0  0
 67 69  1  0  0  0
  1 30  1  0  0  0
 30 31  2  0  0  0
 30 32  1  0  0  0
 32 34  1  0  0  0
 34 52  1  0  0  0
 52 53  1  0  0  0
 53 54  2  0  0  0
 54 55  1  0  0  0
 55 56  1  0  0  0
 56 57  2  0  0  0
 57 58  1  0  0  0
 58 59  2  0  0  0
 59 60  1  0  0  0
 60 61  2  0  0  0
 34 35  1  0  0  0
 35 36  2  0  0  0
 35 37  1  0  0  0
 37 39  1  0  0  0
 39 45  1  0  0  0
 45 46  1  0  0  0
 46 47  1  0  0  0
 47 48  1  0  0  0
 48 49  1  0  0  0
 39 40  1  0  0  0
 40 41  1  0  0  0
 40 42  2  0  0  0
 28 20  1  0  0  0
 61 53  1  0  0  0
 28 23  1  0  0  0
 61 56  1  0  0  0
 12 13  1  0  0  0
 12 14  1  0  0  0
  9 10  1  0  0  0
 22 29  1  0  0  0
  4  5  1  0  0  0
 68 70  1  0  0  0
 68 71  1  0  0  0
 69 72  1  0  0  0
 69 73  1  0  0  0
 32 33  1  0  0  0
 55 62  1  0  0  0
 37 38  1  0  0  0
 49 50  1  0  0  0
 49 51  1  0  0  0
 41 43  1  0  0  0
 41 44  1  0  0  0
M  END
> <minimizedAffinity>
-8.29123

> <CNNscore>
0.2703321278

> <CNNaffinity>
7.6771659851

> <CNN_VS>
2.0753846169

> <CNNaffinity_variance>
1.1317255497

$$$$
[H]c1c([H])c([H])c2c(c1[H])c(C([H])([H])[C@@]([H])(C(=O)N([H])[C@]([H])(C(=O)N([H])[C@]([H])(C(=O)N([H])[C@]([H])(C(=O)N([H])[H])C([H])([H])C([H])([H])C([H])([H])C([H])([H])N([H])[H])C([H])([H])c1c([H])n([H])c3c([H])c([H])c([H])c([H])c13)C([H])([H])C([H])([H])C([H])([H])N=C(N([H])[H])N([H])[H])N([H])C(=O)[C@@]([H])(N([H])[H])C([H])([H])C([H])(C([H])([H])[H])C([H])([H])[H])c([H])n2[H]


 73 76  0  0  0  0  0  0  0  0999 V2000
    0.8513  -50.6039  -21.5474 C   0  0  0  0  0  0  0  0  0  0  0  0
    1.5511  -51.0844  -23.8510 C   0  0  0  0  0  0  0  0  0  0  0  0
    0.3386  -51.1991  -24.1006 O   0  0  0  0  0  0  0  0  0  0  0  0
    1.9178  -50.7289  -22.4917 N   0  0  0  0  0  0  0  0  0  0  0  0
    2.9077  -50.5585  -22.3111 H   0  0  0  0  0  0  0  0  0  0  0  0
    2.5396  -51.3304  -24.9215 C   0  0  0  0  0  0  0  0  0  0  0  0
    1.6245  -52.9637  -26.5052 C   0  0  0  0  0  0  0  0  0  0  0  0
    2.2441  -53.7290  -25.5874 O   0  0  0  0  0  0  0  0  0  0  0  0
    1.7654  -51.6107  -26.1683 N   0  0  0  0  0  0  0  0  0  0  0  0
    1.4057  -50.8220  -26.6988 H   0  0  0  0  0  0  0  0  0  0  0  0
    1.0318  -53.7636  -27.5189 C   0  0  0  0  0  0  0  0  0  0  0  0
    0.6044  -55.0889  -26.8204 N   0  0  0  0  0  0  0  0  0  0  0  0
   -0.1941  -54.7939  -26.2003 H   0  0  0  0  0  0  0  0  0  0  0  0
    1.4484  -55.4027  -26.2998 H   0  0  0  0  0  0  0  0  0  0  0  0
   -0.1131  -53.4868  -28.3507 C   0  0  0  0  0  0  0  0  0  0  0  0
   -2.3479  -52.5561  -28.9070 C   0  0  0  0  0  0  0  0  0  0  0  0
   -1.1281  -52.4777  -28.0842 C   0  0  0  0  0  0  0  0  0  0  0  0
   -1.5654  -52.5140  -26.5996 C   0  0  0  0  0  0  0  0  0  0  0  0
    3.5170  -50.2647  -25.0594 C   0  0  0  0  0  0  0  0  0  0  0  0
    4.8668  -50.6362  -24.5344 C   0  0  0  0  0  0  0  0  0  0  0  0
    5.2577  -51.8106  -23.9441 C   0  0  0  0  0  0  0  0  0  0  0  0
    6.5626  -51.6655  -23.6480 N   0  0  0  0  0  0  0  0  0  0  0  0
    7.0078  -50.4620  -24.0218 C   0  0  0  0  0  0  0  0  0  0  0  0
    8.2559  -49.8689  -23.9253 C   0  0  0  0  0  0  0  0  0  0  0  0
    8.4171  -48.5883  -24.4060 C   0  0  0  0  0  0  0  0  0  0  0  0
    7.3585  -47.8864  -24.9824 C   0  0  0  0  0  0  0  0  0  0  0  0
    6.1236  -48.4875  -25.0724 C   0  0  0  0  0  0  0  0  0  0  0  0
    5.9401  -49.7656  -24.5998 C   0  0  0  0  0  0  0  0  0  0  0  0
    7.1081  -52.4214  -23.1863 H   0  0  0  0  0  0  0  0  0  0  0  0
    1.0753  -49.3834  -20.7367 C   0  0  0  0  0  0  0  0  0  0  0  0
    0.8259  -48.2153  -20.9963 O   0  0  0  0  0  0  0  0  0  0  0  0
    1.6953  -49.6691  -19.5045 N   0  0  0  0  0  0  0  0  0  0  0  0
    1.8532  -50.7006  -19.2463 H   0  0  0  0  0  0  0  0  0  0  0  0
    2.1798  -48.7587  -18.4868 C   0  0  0  0  0  0  0  0  0  0  0  0
    3.4520  -48.1617  -18.9908 C   0  0  0  0  0  0  0  0  0  0  0  0
    4.5049  -48.6604  -18.4205 O   0  0  0  0  0  0  0  0  0  0  0  0
    3.6711  -47.1860  -19.9603 N   0  0  0  0  0  0  0  0  0  0  0  0
    2.8511  -46.7403  -20.4268 H   0  0  0  0  0  0  0  0  0  0  0  0
    4.9944  -46.7503  -20.3570 C   0  0  0  0  0  0  0  0  0  0  0  0
    5.2884  -45.3927  -19.9274 C   0  0  0  0  0  0  0  0  0  0  0  0
    5.9547  -44.4169  -20.7671 N   0  0  0  0  0  0  0  0  0  0  0  0
    4.9988  -44.8971  -18.7724 O   0  0  0  0  0  0  0  0  0  0  0  0
    5.4858  -43.5223  -21.0343 H   0  0  0  0  0  0  0  0  0  0  0  0
    6.9083  -44.5683  -21.1261 H   0  0  0  0  0  0  0  0  0  0  0  0
    5.2285  -46.9661  -21.7994 C   0  0  0  0  0  0  0  0  0  0  0  0
    3.8991  -47.0161  -22.4925 C   0  0  0  0  0  0  0  0  0  0  0  0
    3.8649  -46.1394  -23.6921 C   0  0  0  0  0  0  0  0  0  0  0  0
    3.3066  -44.7771  -23.3253 C   0  0  0  0  0  0  0  0  0  0  0  0
    2.3186  -44.4155  -24.2989 N   0  0  0  0  0  0  0  0  0  0  0  0
    1.8911  -45.2691  -24.7124 H   0  0  0  0  0  0  0  0  0  0  0  0
    1.5927  -43.8321  -23.8606 H   0  0  0  0  0  0  0  0  0  0  0  0
    2.5631  -49.6195  -17.2697 C   0  0  0  0  0  0  0  0  0  0  0  0
    1.3594  -49.8227  -16.4117 C   0  0  0  0  0  0  0  0  0  0  0  0
    0.1162  -49.2389  -16.5484 C   0  0  0  0  0  0  0  0  0  0  0  0
   -0.7083  -49.6801  -15.5942 N   0  0  0  0  0  0  0  0  0  0  0  0
   -0.0495  -50.5737  -14.7921 C   0  0  0  0  0  0  0  0  0  0  0  0
   -0.4421  -51.3061  -13.7025 C   0  0  0  0  0  0  0  0  0  0  0  0
    0.4691  -52.1462  -13.1037 C   0  0  0  0  0  0  0  0  0  0  0  0
    1.7576  -52.2233  -13.6247 C   0  0  0  0  0  0  0  0  0  0  0  0
    2.1449  -51.4924  -14.7084 C   0  0  0  0  0  0  0  0  0  0  0  0
    1.2442  -50.6615  -15.3018 C   0  0  0  0  0  0  0  0  0  0  0  0
   -1.7121  -49.3964  -15.4631 H   0  0  0  0  0  0  0  0  0  0  0  0
    0.9026  -51.8182  -20.6322 C   0  0  0  0  0  0  0  0  0  0  0  0
   -0.2128  -52.7559  -20.5896 C   0  0  0  0  0  0  0  0  0  0  0  0
    0.0179  -54.1966  -20.8776 C   0  0  0  0  0  0  0  0  0  0  0  0
   -1.0910  -54.7576  -21.6623 N   0  0  0  0  0  0  0  0  0  0  0  0
   -1.0386  -54.7079  -22.9364 C   0  0  0  0  0  0  0  0  0  0  0  0
    0.0367  -54.1365  -23.6323 N   0  0  0  0  0  0  0  0  0  0  0  0
   -2.1308  -55.2700  -23.6763 N   0  0  0  0  0  0  0  0  0  0  0  0
    0.3393  -54.6164  -24.5337 H   0  0  0  0  0  0  0  0  0  0  0  0
    0.5275  -53.2925  -23.3288 H   0  0  0  0  0  0  0  0  0  0  0  0
   -2.8543  -54.6835  -24.0924 H   0  0  0  0  0  0  0  0  0  0  0  0
   -2.1979  -56.3113  -23.8032 H   0  0  0  0  0  0  0  0  0  0  0  0
 16 17  1  0  0  0
 17 18  1  0  0  0
 17 15  1  0  0  0
 15 11  1  0  0  0
 11 12  1  0  0  0
 11  7  1  0  0  0
  7  8  2  0  0  0
  7  9  1  0  0  0
  9  6  1  0  0  0
  6 19  1  0  0  0
 19 20  1  0  0  0
 20 21  2  0  0  0
 21 22  1  0  0  0
 22 23  1  0  0  0
 23 24  2  0  0  0
 24 25  1  0  0  0
 25 26  2  0  0  0
 26 27  1  0  0  0
 27 28  2  0  0  0
  6  2  1  0  0  0
  2  3  2  0  0  0
  2  4  1  0  0  0
  4  1  1  0  0  0
  1 63  1  0  0  0
 63 64  1  0  0  0
 64 65  1  0  0  0
 65 66  1  0  0  0
 66 67  2  0  0  0
 67 68  1  0  0  0
 67 69  1  0  0  0
  1 30  1  0  0  0
 30 31  2  0  0  0
 30 32  1  0  0  0
 32 34  1  0  0  0
 34 52  1  0  0  0
 52 53  1  0  0  0
 53 54  2  0  0  0
 54 55  1  0  0  0
 55 56  1  0  0  0
 56 57  2  0  0  0
 57 58  1  0  0  0
 58 59  2  0  0  0
 59 60  1  0  0  0
 60 61  2  0  0  0
 34 35  1  0  0  0
 35 36  2  0  0  0
 35 37  1  0  0  0
 37 39  1  0  0  0
 39 45  1  0  0  0
 45 46  1  0  0  0
 46 47  1  0  0  0
 47 48  1  0  0  0
 48 49  1  0  0  0
 39 40  1  0  0  0
 40 41  1  0  0  0
 40 42  2  0  0  0
 28 20  1  0  0  0
 61 53  1  0  0  0
 28 23  1  0  0  0
 61 56  1  0  0  0
 12 13  1  0  0  0
 12 14  1  0  0  0
  9 10  1  0  0  0
 22 29  1  0  0  0
  4  5  1  0  0  0
 68 70  1  0  0  0
 68 71  1  0  0  0
 69 72  1  0  0  0
 69 73  1  0  0  0
 32 33  1  0  0  0
 55 62  1  0  0  0
 37 38  1  0  0  0
 49 50  1  0  0  0
 49 51  1  0  0  0
 41 43  1  0  0  0
 41 44  1  0  0  0
M  END
> <minimizedAffinity>
-7.20184

> <CNNscore>
0.2601639926

> <CNNaffinity>
7.7149367332

> <CNN_VS>
2.0071487427

> <CNNaffinity_variance>
0.7483505011

$$$$
[H]c1c([H])c([H])c2c(c1[H])c(C([H])([H])[C@@]([H])(C(=O)N([H])[C@]([H])(C(=O)N([H])[C@]([H])(C(=O)N([H])[C@]([H])(C(=O)N([H])[H])C([H])([H])C([H])([H])C([H])([H])C([H])([H])N([H])[H])C([H])([H])c1c([H])n([H])c3c([H])c([H])c([H])c([H])c13)C([H])([H])C([H])([H])C([H])([H])N=C(N([H])[H])N([H])[H])N([H])C(=O)[C@@]([H])(N([H])[H])C([H])([H])C([H])(C([H])([H])[H])C([H])([H])[H])c([H])n2[H]


 73 76  0  0  0  0  0  0  0  0999 V2000
    5.6861  -49.8611  -22.0723 C   0  0  0  0  0  0  0  0  0  0  0  0
    3.5283  -49.7951  -20.9033 C   0  0  0  0  0  0  0  0  0  0  0  0
    3.3476  -48.7112  -21.4849 O   0  0  0  0  0  0  0  0  0  0  0  0
    4.7618  -50.5050  -21.1915 N   0  0  0  0  0  0  0  0  0  0  0  0
    4.8696  -51.4299  -20.7738 H   0  0  0  0  0  0  0  0  0  0  0  0
    2.5105  -50.2875  -19.9519 C   0  0  0  0  0  0  0  0  0  0  0  0
    3.2081  -50.1614  -17.6044 C   0  0  0  0  0  0  0  0  0  0  0  0
    3.4825  -51.4343  -17.9459 O   0  0  0  0  0  0  0  0  0  0  0  0
    2.6620  -49.4827  -18.7023 N   0  0  0  0  0  0  0  0  0  0  0  0
    2.3534  -48.5145  -18.7132 H   0  0  0  0  0  0  0  0  0  0  0  0
    3.5527  -49.9122  -16.2488 C   0  0  0  0  0  0  0  0  0  0  0  0
    4.2302  -48.5094  -16.2323 N   0  0  0  0  0  0  0  0  0  0  0  0
    3.4357  -47.8501  -16.4402 H   0  0  0  0  0  0  0  0  0  0  0  0
    4.9509  -48.5501  -16.9812 H   0  0  0  0  0  0  0  0  0  0  0  0
    2.7024  -49.8421  -15.0863 C   0  0  0  0  0  0  0  0  0  0  0  0
    1.9611  -48.6491  -13.0376 C   0  0  0  0  0  0  0  0  0  0  0  0
    3.0652  -49.2483  -13.8075 C   0  0  0  0  0  0  0  0  0  0  0  0
    3.7588  -50.2879  -12.8938 C   0  0  0  0  0  0  0  0  0  0  0  0
    1.1639  -50.2859  -20.4966 C   0  0  0  0  0  0  0  0  0  0  0  0
    0.4493  -51.5839  -20.2963 C   0  0  0  0  0  0  0  0  0  0  0  0
    0.0275  -52.1518  -19.1216 C   0  0  0  0  0  0  0  0  0  0  0  0
   -0.5644  -53.3130  -19.4574 N   0  0  0  0  0  0  0  0  0  0  0  0
   -0.5345  -53.5010  -20.7804 C   0  0  0  0  0  0  0  0  0  0  0  0
   -1.0093  -54.5297  -21.5773 C   0  0  0  0  0  0  0  0  0  0  0  0
   -0.8272  -54.4469  -22.9400 C   0  0  0  0  0  0  0  0  0  0  0  0
   -0.1816  -53.3578  -23.5253 C   0  0  0  0  0  0  0  0  0  0  0  0
    0.2850  -52.3422  -22.7220 C   0  0  0  0  0  0  0  0  0  0  0  0
    0.1135  -52.4036  -21.3591 C   0  0  0  0  0  0  0  0  0  0  0  0
   -0.9748  -53.9470  -18.7421 H   0  0  0  0  0  0  0  0  0  0  0  0
    5.4467  -50.3489  -23.4514 C   0  0  0  0  0  0  0  0  0  0  0  0
    6.0191  -51.2262  -24.0812 O   0  0  0  0  0  0  0  0  0  0  0  0
    4.4114  -49.6418  -24.0939 N   0  0  0  0  0  0  0  0  0  0  0  0
    3.8629  -48.9176  -23.5193 H   0  0  0  0  0  0  0  0  0  0  0  0
    3.9492  -49.7331  -25.4640 C   0  0  0  0  0  0  0  0  0  0  0  0
    3.8919  -48.3446  -26.0094 C   0  0  0  0  0  0  0  0  0  0  0  0
    4.8662  -48.0811  -26.8242 O   0  0  0  0  0  0  0  0  0  0  0  0
    2.9702  -47.3239  -25.7888 N   0  0  0  0  0  0  0  0  0  0  0  0
    2.1844  -47.4846  -25.1215 H   0  0  0  0  0  0  0  0  0  0  0  0
    3.0490  -46.0340  -26.4432 C   0  0  0  0  0  0  0  0  0  0  0  0
    2.9234  -44.9253  -25.5109 C   0  0  0  0  0  0  0  0  0  0  0  0
    3.6275  -43.6679  -25.6672 N   0  0  0  0  0  0  0  0  0  0  0  0
    2.1858  -44.9208  -24.4529 O   0  0  0  0  0  0  0  0  0  0  0  0
    3.1096  -42.7672  -25.7765 H   0  0  0  0  0  0  0  0  0  0  0  0
    4.6563  -43.6173  -25.6739 H   0  0  0  0  0  0  0  0  0  0  0  0
    2.1124  -45.9436  -27.5819 C   0  0  0  0  0  0  0  0  0  0  0  0
    2.9129  -45.8340  -28.8457 C   0  0  0  0  0  0  0  0  0  0  0  0
    2.0436  -45.7458  -30.0479 C   0  0  0  0  0  0  0  0  0  0  0  0
    2.7353  -46.3838  -31.2382 C   0  0  0  0  0  0  0  0  0  0  0  0
    3.6098  -47.4121  -30.7561 N   0  0  0  0  0  0  0  0  0  0  0  0
    3.2567  -47.7916  -29.8540 H   0  0  0  0  0  0  0  0  0  0  0  0
    3.6819  -48.1655  -31.4537 H   0  0  0  0  0  0  0  0  0  0  0  0
    2.4941  -50.2317  -25.4074 C   0  0  0  0  0  0  0  0  0  0  0  0
    2.3481  -51.4263  -26.2894 C   0  0  0  0  0  0  0  0  0  0  0  0
    3.3503  -52.2221  -26.8064 C   0  0  0  0  0  0  0  0  0  0  0  0
    2.8252  -53.2058  -27.5423 N   0  0  0  0  0  0  0  0  0  0  0  0
    1.4592  -53.1052  -27.5397 C   0  0  0  0  0  0  0  0  0  0  0  0
    0.4729  -53.8599  -28.1189 C   0  0  0  0  0  0  0  0  0  0  0  0
   -0.8410  -53.5022  -27.9184 C   0  0  0  0  0  0  0  0  0  0  0  0
   -1.1234  -52.3870  -27.1347 C   0  0  0  0  0  0  0  0  0  0  0  0
   -0.1394  -51.6380  -26.5608 C   0  0  0  0  0  0  0  0  0  0  0  0
    1.1607  -51.9912  -26.7580 C   0  0  0  0  0  0  0  0  0  0  0  0
    3.3620  -53.9519  -28.0526 H   0  0  0  0  0  0  0  0  0  0  0  0
    7.0885  -50.2667  -21.6440 C   0  0  0  0  0  0  0  0  0  0  0  0
    8.2385  -49.4561  -22.0256 C   0  0  0  0  0  0  0  0  0  0  0  0
    8.7720  -48.4358  -21.0843 C   0  0  0  0  0  0  0  0  0  0  0  0
    7.7123  -47.9388  -20.1954 N   0  0  0  0  0  0  0  0  0  0  0  0
    7.7885  -48.1762  -18.9438 C   0  0  0  0  0  0  0  0  0  0  0  0
    8.8449  -48.8975  -18.3688 N   0  0  0  0  0  0  0  0  0  0  0  0
    6.7446  -47.6724  -18.0996 N   0  0  0  0  0  0  0  0  0  0  0  0
    9.1921  -48.5703  -17.4166 H   0  0  0  0  0  0  0  0  0  0  0  0
    9.2820  -49.7123  -18.8049 H   0  0  0  0  0  0  0  0  0  0  0  0
    5.9986  -48.2752  -17.7520 H   0  0  0  0  0  0  0  0  0  0  0  0
    6.7375  -46.6587  -17.8219 H   0  0  0  0  0  0  0  0  0  0  0  0
 16 17  1  0  0  0
 17 18  1  0  0  0
 17 15  1  0  0  0
 15 11  1  0  0  0
 11 12  1  0  0  0
 11  7  1  0  0  0
  7  8  2  0  0  0
  7  9  1  0  0  0
  9  6  1  0  0  0
  6 19  1  0  0  0
 19 20  1  0  0  0
 20 21  2  0  0  0
 21 22  1  0  0  0
 22 23  1  0  0  0
 23 24  2  0  0  0
 24 25  1  0  0  0
 25 26  2  0  0  0
 26 27  1  0  0  0
 27 28  2  0  0  0
  6  2  1  0  0  0
  2  3  2  0  0  0
  2  4  1  0  0  0
  4  1  1  0  0  0
  1 63  1  0  0  0
 63 64  1  0  0  0
 64 65  1  0  0  0
 65 66  1  0  0  0
 66 67  2  0  0  0
 67 68  1  0  0  0
 67 69  1  0  0  0
  1 30  1  0  0  0
 30 31  2  0  0  0
 30 32  1  0  0  0
 32 34  1  0  0  0
 34 52  1  0  0  0
 52 53  1  0  0  0
 53 54  2  0  0  0
 54 55  1  0  0  0
 55 56  1  0  0  0
 56 57  2  0  0  0
 57 58  1  0  0  0
 58 59  2  0  0  0
 59 60  1  0  0  0
 60 61  2  0  0  0
 34 35  1  0  0  0
 35 36  2  0  0  0
 35 37  1  0  0  0
 37 39  1  0  0  0
 39 45  1  0  0  0
 45 46  1  0  0  0
 46 47  1  0  0  0
 47 48  1  0  0  0
 48 49  1  0  0  0
 39 40  1  0  0  0
 40 41  1  0  0  0
 40 42  2  0  0  0
 28 20  1  0  0  0
 61 53  1  0  0  0
 28 23  1  0  0  0
 61 56  1  0  0  0
 12 13  1  0  0  0
 12 14  1  0  0  0
  9 10  1  0  0  0
 22 29  1  0  0  0
  4  5  1  0  0  0
 68 70  1  0  0  0
 68 71  1  0  0  0
 69 72  1  0  0  0
 69 73  1  0  0  0
 32 33  1  0  0  0
 55 62  1  0  0  0
 37 38  1  0  0  0
 49 50  1  0  0  0
 49 51  1  0  0  0
 41 43  1  0  0  0
 41 44  1  0  0  0
M  END
> <minimizedAffinity>
-8.11335

> <CNNscore>
0.2595108151

> <CNNaffinity>
7.6128768921

> <CNN_VS>
1.9756238461

> <CNNaffinity_variance>
0.8800247312

$$$$
[H]c1c([H])c([H])c2c(c1[H])c(C([H])([H])[C@@]([H])(C(=O)N([H])[C@]([H])(C(=O)N([H])[C@]([H])(C(=O)N([H])[C@]([H])(C(=O)N([H])[H])C([H])([H])C([H])([H])C([H])([H])C([H])([H])N([H])[H])C([H])([H])c1c([H])n([H])c3c([H])c([H])c([H])c([H])c13)C([H])([H])C([H])([H])C([H])([H])N=C(N([H])[H])N([H])[H])N([H])C(=O)[C@@]([H])(N([H])[H])C([H])([H])C([H])(C([H])([H])[H])C([H])([H])[H])c([H])n2[H]


 73 76  0  0  0  0  0  0  0  0999 V2000
    4.6233  -51.5153  -21.7840 C   0  0  0  0  0  0  0  0  0  0  0  0
    3.7336  -51.8005  -24.0544 C   0  0  0  0  0  0  0  0  0  0  0  0
    4.1464  -52.9704  -23.9729 O   0  0  0  0  0  0  0  0  0  0  0  0
    3.9225  -50.9482  -22.8940 N   0  0  0  0  0  0  0  0  0  0  0  0
    3.5121  -50.0146  -22.9363 H   0  0  0  0  0  0  0  0  0  0  0  0
    3.1031  -51.3383  -25.3083 C   0  0  0  0  0  0  0  0  0  0  0  0
    3.8524  -49.2583  -26.3692 C   0  0  0  0  0  0  0  0  0  0  0  0
    2.6398  -48.9415  -25.8781 O   0  0  0  0  0  0  0  0  0  0  0  0
    4.1513  -50.5945  -26.0703 N   0  0  0  0  0  0  0  0  0  0  0  0
    4.9965  -51.0920  -26.3367 H   0  0  0  0  0  0  0  0  0  0  0  0
    4.4390  -48.1476  -27.0332 C   0  0  0  0  0  0  0  0  0  0  0  0
    5.7069  -48.7006  -27.7499 N   0  0  0  0  0  0  0  0  0  0  0  0
    5.3122  -49.3035  -28.5179 H   0  0  0  0  0  0  0  0  0  0  0  0
    6.2191  -49.2329  -27.0176 H   0  0  0  0  0  0  0  0  0  0  0  0
    3.8799  -47.2872  -28.0463 C   0  0  0  0  0  0  0  0  0  0  0  0
    3.5476  -45.0233  -29.0130 C   0  0  0  0  0  0  0  0  0  0  0  0
    3.4446  -45.9129  -27.8430 C   0  0  0  0  0  0  0  0  0  0  0  0
    1.9776  -45.8663  -27.3509 C   0  0  0  0  0  0  0  0  0  0  0  0
    2.4698  -52.4060  -26.0626 C   0  0  0  0  0  0  0  0  0  0  0  0
    0.9769  -52.3696  -25.9887 C   0  0  0  0  0  0  0  0  0  0  0  0
    0.1824  -52.2010  -24.8838 C   0  0  0  0  0  0  0  0  0  0  0  0
   -1.0882  -52.2369  -25.3262 N   0  0  0  0  0  0  0  0  0  0  0  0
   -1.1298  -52.4195  -26.6496 C   0  0  0  0  0  0  0  0  0  0  0  0
   -2.1908  -52.5209  -27.5343 C   0  0  0  0  0  0  0  0  0  0  0  0
   -1.9197  -52.7136  -28.8709 C   0  0  0  0  0  0  0  0  0  0  0  0
   -0.6110  -52.8064  -29.3441 C   0  0  0  0  0  0  0  0  0  0  0  0
    0.4342  -52.7035  -28.4544 C   0  0  0  0  0  0  0  0  0  0  0  0
    0.1869  -52.5101  -27.1158 C   0  0  0  0  0  0  0  0  0  0  0  0
   -1.8973  -52.1330  -24.6808 H   0  0  0  0  0  0  0  0  0  0  0  0
    3.8471  -51.2539  -20.5486 C   0  0  0  0  0  0  0  0  0  0  0  0
    3.7057  -51.9476  -19.5522 O   0  0  0  0  0  0  0  0  0  0  0  0
    3.1701  -50.0194  -20.5963 N   0  0  0  0  0  0  0  0  0  0  0  0
    3.3475  -49.3791  -21.4414 H   0  0  0  0  0  0  0  0  0  0  0  0
    2.2295  -49.4503  -19.6527 C   0  0  0  0  0  0  0  0  0  0  0  0
    1.0477  -50.3608  -19.5959 C   0  0  0  0  0  0  0  0  0  0  0  0
    0.1674  -50.1039  -20.5133 O   0  0  0  0  0  0  0  0  0  0  0  0
    0.7627  -51.4198  -18.7372 N   0  0  0  0  0  0  0  0  0  0  0  0
    1.4318  -51.6452  -17.9692 H   0  0  0  0  0  0  0  0  0  0  0  0
   -0.4309  -52.2321  -18.8548 C   0  0  0  0  0  0  0  0  0  0  0  0
   -1.0014  -52.5781  -17.5630 C   0  0  0  0  0  0  0  0  0  0  0  0
   -2.2102  -53.3631  -17.4091 N   0  0  0  0  0  0  0  0  0  0  0  0
   -0.5140  -52.2391  -16.4179 O   0  0  0  0  0  0  0  0  0  0  0  0
   -2.2010  -54.2786  -16.9057 H   0  0  0  0  0  0  0  0  0  0  0  0
   -3.1156  -53.0479  -17.7859 H   0  0  0  0  0  0  0  0  0  0  0  0
   -0.2067  -53.4058  -19.7233 C   0  0  0  0  0  0  0  0  0  0  0  0
   -0.9675  -53.2021  -21.0000 C   0  0  0  0  0  0  0  0  0  0  0  0
   -1.5307  -54.4754  -21.5200 C   0  0  0  0  0  0  0  0  0  0  0  0
   -0.7764  -54.9088  -22.7631 C   0  0  0  0  0  0  0  0  0  0  0  0
   -1.7310  -55.2301  -23.7830 N   0  0  0  0  0  0  0  0  0  0  0  0
   -2.6084  -54.6900  -23.6382 H   0  0  0  0  0  0  0  0  0  0  0  0
   -1.3356  -55.0221  -24.7103 H   0  0  0  0  0  0  0  0  0  0  0  0
    1.7264  -48.1330  -20.2698 C   0  0  0  0  0  0  0  0  0  0  0  0
    2.8792  -47.2040  -20.4548 C   0  0  0  0  0  0  0  0  0  0  0  0
    3.7266  -46.7057  -19.4860 C   0  0  0  0  0  0  0  0  0  0  0  0
    4.6471  -45.9127  -20.0414 N   0  0  0  0  0  0  0  0  0  0  0  0
    4.4511  -45.8566  -21.3959 C   0  0  0  0  0  0  0  0  0  0  0  0
    5.1160  -45.2070  -22.4027 C   0  0  0  0  0  0  0  0  0  0  0  0
    4.6736  -45.3597  -23.6971 C   0  0  0  0  0  0  0  0  0  0  0  0
    3.5668  -46.1682  -23.9396 C   0  0  0  0  0  0  0  0  0  0  0  0
    2.9073  -46.8122  -22.9351 C   0  0  0  0  0  0  0  0  0  0  0  0
    3.3443  -46.6623  -21.6545 C   0  0  0  0  0  0  0  0  0  0  0  0
    5.4125  -45.4017  -19.5333 H   0  0  0  0  0  0  0  0  0  0  0  0
    5.9669  -50.8093  -21.6790 C   0  0  0  0  0  0  0  0  0  0  0  0
    6.0290  -49.3573  -21.5649 C   0  0  0  0  0  0  0  0  0  0  0  0
    6.5555  -48.5462  -22.6948 C   0  0  0  0  0  0  0  0  0  0  0  0
    6.6348  -49.3492  -23.9232 N   0  0  0  0  0  0  0  0  0  0  0  0
    7.6885  -49.2860  -24.6404 C   0  0  0  0  0  0  0  0  0  0  0  0
    8.7862  -48.4776  -24.3109 N   0  0  0  0  0  0  0  0  0  0  0  0
    7.7412  -50.0862  -25.8291 N   0  0  0  0  0  0  0  0  0  0  0  0
    9.7548  -48.8715  -24.5126 H   0  0  0  0  0  0  0  0  0  0  0  0
    8.7035  -47.5429  -23.9049 H   0  0  0  0  0  0  0  0  0  0  0  0
    7.5829  -49.6843  -26.7532 H   0  0  0  0  0  0  0  0  0  0  0  0
    7.9504  -51.1141  -25.7609 H   0  0  0  0  0  0  0  0  0  0  0  0
 16 17  1  0  0  0
 17 18  1  0  0  0
 17 15  1  0  0  0
 15 11  1  0  0  0
 11 12  1  0  0  0
 11  7  1  0  0  0
  7  8  2  0  0  0
  7  9  1  0  0  0
  9  6  1  0  0  0
  6 19  1  0  0  0
 19 20  1  0  0  0
 20 21  2  0  0  0
 21 22  1  0  0  0
 22 23  1  0  0  0
 23 24  2  0  0  0
 24 25  1  0  0  0
 25 26  2  0  0  0
 26 27  1  0  0  0
 27 28  2  0  0  0
  6  2  1  0  0  0
  2  3  2  0  0  0
  2  4  1  0  0  0
  4  1  1  0  0  0
  1 63  1  0  0  0
 63 64  1  0  0  0
 64 65  1  0  0  0
 65 66  1  0  0  0
 66 67  2  0  0  0
 67 68  1  0  0  0
 67 69  1  0  0  0
  1 30  1  0  0  0
 30 31  2  0  0  0
 30 32  1  0  0  0
 32 34  1  0  0  0
 34 52  1  0  0  0
 52 53  1  0  0  0
 53 54  2  0  0  0
 54 55  1  0  0  0
 55 56  1  0  0  0
 56 57  2  0  0  0
 57 58  1  0  0  0
 58 59  2  0  0  0
 59 60  1  0  0  0
 60 61  2  0  0  0
 34 35  1  0  0  0
 35 36  2  0  0  0
 35 37  1  0  0  0
 37 39  1  0  0  0
 39 45  1  0  0  0
 45 46  1  0  0  0
 46 47  1  0  0  0
 47 48  1  0  0  0
 48 49  1  0  0  0
 39 40  1  0  0  0
 40 41  1  0  0  0
 40 42  2  0  0  0
 28 20  1  0  0  0
 61 53  1  0  0  0
 28 23  1  0  0  0
 61 56  1  0  0  0
 12 13  1  0  0  0
 12 14  1  0  0  0
  9 10  1  0  0  0
 22 29  1  0  0  0
  4  5  1  0  0  0
 68 70  1  0  0  0
 68 71  1  0  0  0
 69 72  1  0  0  0
 69 73  1  0  0  0
 32 33  1  0  0  0
 55 62  1  0  0  0
 37 38  1  0  0  0
 49 50  1  0  0  0
 49 51  1  0  0  0
 41 43  1  0  0  0
 41 44  1  0  0  0
M  END
> <minimizedAffinity>
-7.89106

> <CNNscore>
0.2553050518

> <CNNaffinity>
7.8292899132

> <CNN_VS>
1.9988572598

> <CNNaffinity_variance>
1.2077058554

$$$$
[H]c1c([H])c([H])c2c(c1[H])c(C([H])([H])[C@@]([H])(C(=O)N([H])[C@]([H])(C(=O)N([H])[C@]([H])(C(=O)N([H])[C@]([H])(C(=O)N([H])[H])C([H])([H])C([H])([H])C([H])([H])C([H])([H])N([H])[H])C([H])([H])c1c([H])n([H])c3c([H])c([H])c([H])c([H])c13)C([H])([H])C([H])([H])C([H])([H])N=C(N([H])[H])N([H])[H])N([H])C(=O)[C@@]([H])(N([H])[H])C([H])([H])C([H])(C([H])([H])[H])C([H])([H])[H])c([H])n2[H]


 73 76  0  0  0  0  0  0  0  0999 V2000
    2.9860  -51.3648  -21.5100 C   0  0  0  0  0  0  0  0  0  0  0  0
    3.3629  -50.7888  -19.1534 C   0  0  0  0  0  0  0  0  0  0  0  0
    2.8953  -51.9119  -18.8968 O   0  0  0  0  0  0  0  0  0  0  0  0
    3.4790  -50.4227  -20.5538 N   0  0  0  0  0  0  0  0  0  0  0  0
    3.9358  -49.5340  -20.7614 H   0  0  0  0  0  0  0  0  0  0  0  0
    3.7501  -49.8924  -18.0443 C   0  0  0  0  0  0  0  0  0  0  0  0
    3.7996  -47.5385  -18.7297 C   0  0  0  0  0  0  0  0  0  0  0  0
    5.0740  -47.9402  -18.8928 O   0  0  0  0  0  0  0  0  0  0  0  0
    3.0229  -48.6045  -18.2557 N   0  0  0  0  0  0  0  0  0  0  0  0
    2.0316  -48.5697  -18.0345 H   0  0  0  0  0  0  0  0  0  0  0  0
    3.6475  -46.1708  -19.0832 C   0  0  0  0  0  0  0  0  0  0  0  0
    2.9844  -45.4837  -17.8522 N   0  0  0  0  0  0  0  0  0  0  0  0
    3.7448  -45.4970  -17.1237 H   0  0  0  0  0  0  0  0  0  0  0  0
    2.1665  -46.0824  -17.6184 H   0  0  0  0  0  0  0  0  0  0  0  0
    4.6512  -45.2044  -19.4544 C   0  0  0  0  0  0  0  0  0  0  0  0
    6.4126  -45.5102  -21.1789 C   0  0  0  0  0  0  0  0  0  0  0  0
    5.1064  -44.9362  -20.8110 C   0  0  0  0  0  0  0  0  0  0  0  0
    4.0709  -45.4338  -21.8486 C   0  0  0  0  0  0  0  0  0  0  0  0
    3.5448  -50.4786  -16.7311 C   0  0  0  0  0  0  0  0  0  0  0  0
    2.5731  -49.7117  -15.8926 C   0  0  0  0  0  0  0  0  0  0  0  0
    2.8253  -48.6815  -15.0234 C   0  0  0  0  0  0  0  0  0  0  0  0
    1.6333  -48.3209  -14.5129 N   0  0  0  0  0  0  0  0  0  0  0  0
    0.6492  -49.0717  -15.0171 C   0  0  0  0  0  0  0  0  0  0  0  0
   -0.7182  -49.0709  -14.7958 C   0  0  0  0  0  0  0  0  0  0  0  0
   -1.4970  -49.9831  -15.4728 C   0  0  0  0  0  0  0  0  0  0  0  0
   -0.9399  -50.8966  -16.3676 C   0  0  0  0  0  0  0  0  0  0  0  0
    0.4202  -50.8865  -16.5786 C   0  0  0  0  0  0  0  0  0  0  0  0
    1.2168  -49.9840  -15.9142 C   0  0  0  0  0  0  0  0  0  0  0  0
    1.5437  -47.5523  -13.8177 H   0  0  0  0  0  0  0  0  0  0  0  0
    4.0192  -51.5673  -22.5534 C   0  0  0  0  0  0  0  0  0  0  0  0
    5.1758  -51.9476  -22.4455 O   0  0  0  0  0  0  0  0  0  0  0  0
    3.5512  -51.2300  -23.8385 N   0  0  0  0  0  0  0  0  0  0  0  0
    2.5158  -50.9608  -23.9439 H   0  0  0  0  0  0  0  0  0  0  0  0
    4.2712  -51.1805  -25.0948 C   0  0  0  0  0  0  0  0  0  0  0  0
    5.4034  -50.2227  -24.9232 C   0  0  0  0  0  0  0  0  0  0  0  0
    5.0250  -48.9824  -24.9539 O   0  0  0  0  0  0  0  0  0  0  0  0
    6.7631  -50.4553  -24.7304 N   0  0  0  0  0  0  0  0  0  0  0  0
    7.1145  -51.4376  -24.7238 H   0  0  0  0  0  0  0  0  0  0  0  0
    7.7268  -49.3908  -24.5394 C   0  0  0  0  0  0  0  0  0  0  0  0
    8.6374  -49.2523  -25.6645 C   0  0  0  0  0  0  0  0  0  0  0  0
    8.2011  -49.2371  -27.0467 N   0  0  0  0  0  0  0  0  0  0  0  0
    9.9180  -49.1271  -25.5760 O   0  0  0  0  0  0  0  0  0  0  0  0
    8.3737  -48.4090  -27.6600 H   0  0  0  0  0  0  0  0  0  0  0  0
    7.7107  -50.0371  -27.4716 H   0  0  0  0  0  0  0  0  0  0  0  0
    8.4220  -49.5127  -23.2418 C   0  0  0  0  0  0  0  0  0  0  0  0
    7.5418  -48.9291  -22.1765 C   0  0  0  0  0  0  0  0  0  0  0  0
    7.6979  -49.6357  -20.8784 C   0  0  0  0  0  0  0  0  0  0  0  0
    8.6110  -48.8437  -19.9613 C   0  0  0  0  0  0  0  0  0  0  0  0
    8.0439  -48.8466  -18.6449 N   0  0  0  0  0  0  0  0  0  0  0  0
    7.4638  -49.6988  -18.5044 H   0  0  0  0  0  0  0  0  0  0  0  0
    8.7937  -48.8081  -17.9408 H   0  0  0  0  0  0  0  0  0  0  0  0
    3.3215  -50.5414  -26.1239 C   0  0  0  0  0  0  0  0  0  0  0  0
    2.5688  -51.6166  -26.8335 C   0  0  0  0  0  0  0  0  0  0  0  0
    3.0610  -52.5381  -27.7356 C   0  0  0  0  0  0  0  0  0  0  0  0
    2.0824  -53.3492  -28.1472 N   0  0  0  0  0  0  0  0  0  0  0  0
    0.9076  -53.0029  -27.5341 C   0  0  0  0  0  0  0  0  0  0  0  0
   -0.3603  -53.5182  -27.6015 C   0  0  0  0  0  0  0  0  0  0  0  0
   -1.3516  -52.9449  -26.8378 C   0  0  0  0  0  0  0  0  0  0  0  0
   -1.0329  -51.8620  -26.0233 C   0  0  0  0  0  0  0  0  0  0  0  0
    0.2296  -51.3515  -25.9595 C   0  0  0  0  0  0  0  0  0  0  0  0
    1.2110  -51.9181  -26.7141 C   0  0  0  0  0  0  0  0  0  0  0  0
    2.1799  -54.1380  -28.8353 H   0  0  0  0  0  0  0  0  0  0  0  0
    1.7478  -50.7603  -22.1550 C   0  0  0  0  0  0  0  0  0  0  0  0
    0.5340  -51.5536  -22.3055 C   0  0  0  0  0  0  0  0  0  0  0  0
    0.4880  -52.9454  -21.7834 C   0  0  0  0  0  0  0  0  0  0  0  0
    0.0235  -52.9664  -20.3892 N   0  0  0  0  0  0  0  0  0  0  0  0
   -1.1165  -53.4734  -20.1212 C   0  0  0  0  0  0  0  0  0  0  0  0
   -1.9580  -54.0163  -21.1032 N   0  0  0  0  0  0  0  0  0  0  0  0
   -1.5405  -53.4875  -18.7515 N   0  0  0  0  0  0  0  0  0  0  0  0
   -2.5082  -54.8894  -20.8399 H   0  0  0  0  0  0  0  0  0  0  0  0
   -2.0752  -53.6168  -22.0370 H   0  0  0  0  0  0  0  0  0  0  0  0
   -2.2142  -52.8110  -18.3921 H   0  0  0  0  0  0  0  0  0  0  0  0
   -1.1573  -54.2098  -18.0909 H   0  0  0  0  0  0  0  0  0  0  0  0
 16 17  1  0  0  0
 17 18  1  0  0  0
 17 15  1  0  0  0
 15 11  1  0  0  0
 11 12  1  0  0  0
 11  7  1  0  0  0
  7  8  2  0  0  0
  7  9  1  0  0  0
  9  6  1  0  0  0
  6 19  1  0  0  0
 19 20  1  0  0  0
 20 21  2  0  0  0
 21 22  1  0  0  0
 22 23  1  0  0  0
 23 24  2  0  0  0
 24 25  1  0  0  0
 25 26  2  0  0  0
 26 27  1  0  0  0
 27 28  2  0  0  0
  6  2  1  0  0  0
  2  3  2  0  0  0
  2  4  1  0  0  0
  4  1  1  0  0  0
  1 63  1  0  0  0
 63 64  1  0  0  0
 64 65  1  0  0  0
 65 66  1  0  0  0
 66 67  2  0  0  0
 67 68  1  0  0  0
 67 69  1  0  0  0
  1 30  1  0  0  0
 30 31  2  0  0  0
 30 32  1  0  0  0
 32 34  1  0  0  0
 34 52  1  0  0  0
 52 53  1  0  0  0
 53 54  2  0  0  0
 54 55  1  0  0  0
 55 56  1  0  0  0
 56 57  2  0  0  0
 57 58  1  0  0  0
 58 59  2  0  0  0
 59 60  1  0  0  0
 60 61  2  0  0  0
 34 35  1  0  0  0
 35 36  2  0  0  0
 35 37  1  0  0  0
 37 39  1  0  0  0
 39 45  1  0  0  0
 45 46  1  0  0  0
 46 47  1  0  0  0
 47 48  1  0  0  0
 48 49  1  0  0  0
 39 40  1  0  0  0
 40 41  1  0  0  0
 40 42  2  0  0  0
 28 20  1  0  0  0
 61 53  1  0  0  0
 28 23  1  0  0  0
 61 56  1  0  0  0
 12 13  1  0  0  0
 12 14  1  0  0  0
  9 10  1  0  0  0
 22 29  1  0  0  0
  4  5  1  0  0  0
 68 70  1  0  0  0
 68 71  1  0  0  0
 69 72  1  0  0  0
 69 73  1  0  0  0
 32 33  1  0  0  0
 55 62  1  0  0  0
 37 38  1  0  0  0
 49 50  1  0  0  0
 49 51  1  0  0  0
 41 43  1  0  0  0
 41 44  1  0  0  0
M  END
> <minimizedAffinity>
-7.23772

> <CNNscore>
0.2518962920

> <CNNaffinity>
7.6323308945

> <CNN_VS>
1.9225558043

> <CNNaffinity_variance>
0.7218255997

$$$$
[H]c1c([H])c([H])c2c(c1[H])c(C([H])([H])[C@@]([H])(C(=O)N([H])[C@]([H])(C(=O)N([H])[C@]([H])(C(=O)N([H])[C@]([H])(C(=O)N([H])[H])C([H])([H])C([H])([H])C([H])([H])C([H])([H])N([H])[H])C([H])([H])c1c([H])n([H])c3c([H])c([H])c([H])c([H])c13)C([H])([H])C([H])([H])C([H])([H])N=C(N([H])[H])N([H])[H])N([H])C(=O)[C@@]([H])(N([H])[H])C([H])([H])C([H])(C([H])([H])[H])C([H])([H])[H])c([H])n2[H]


 73 76  0  0  0  0  0  0  0  0999 V2000
    3.7066  -48.6126  -22.3148 C   0  0  0  0  0  0  0  0  0  0  0  0
    3.4769  -50.1610  -24.2062 C   0  0  0  0  0  0  0  0  0  0  0  0
    4.4015  -50.8025  -23.6778 O   0  0  0  0  0  0  0  0  0  0  0  0
    3.0136  -48.9721  -23.5128 N   0  0  0  0  0  0  0  0  0  0  0  0
    2.2034  -48.4941  -23.9086 H   0  0  0  0  0  0  0  0  0  0  0  0
    2.9204  -50.6179  -25.4965 C   0  0  0  0  0  0  0  0  0  0  0  0
    3.8021  -48.9701  -27.0842 C   0  0  0  0  0  0  0  0  0  0  0  0
    2.7749  -48.3254  -26.5001 O   0  0  0  0  0  0  0  0  0  0  0  0
    3.9190  -50.2600  -26.5487 N   0  0  0  0  0  0  0  0  0  0  0  0
    4.6019  -50.9611  -26.8223 H   0  0  0  0  0  0  0  0  0  0  0  0
    4.4352  -48.1466  -28.0535 C   0  0  0  0  0  0  0  0  0  0  0  0
    4.9903  -46.9184  -27.2721 N   0  0  0  0  0  0  0  0  0  0  0  0
    5.7760  -47.3250  -26.7007 H   0  0  0  0  0  0  0  0  0  0  0  0
    4.1889  -46.5769  -26.7037 H   0  0  0  0  0  0  0  0  0  0  0  0
    5.5317  -48.4524  -28.9387 C   0  0  0  0  0  0  0  0  0  0  0  0
    5.9321  -49.1949  -31.2750 C   0  0  0  0  0  0  0  0  0  0  0  0
    5.6051  -48.0968  -30.3485 C   0  0  0  0  0  0  0  0  0  0  0  0
    4.2758  -47.4643  -30.8277 C   0  0  0  0  0  0  0  0  0  0  0  0
    2.5391  -52.0196  -25.4957 C   0  0  0  0  0  0  0  0  0  0  0  0
    1.8196  -52.4318  -26.7398 C   0  0  0  0  0  0  0  0  0  0  0  0
    2.3454  -52.9453  -27.8976 C   0  0  0  0  0  0  0  0  0  0  0  0
    1.3023  -53.1605  -28.7203 N   0  0  0  0  0  0  0  0  0  0  0  0
    0.1520  -52.8082  -28.1379 C   0  0  0  0  0  0  0  0  0  0  0  0
   -1.1585  -52.8464  -28.5851 C   0  0  0  0  0  0  0  0  0  0  0  0
   -2.1561  -52.4056  -27.7440 C   0  0  0  0  0  0  0  0  0  0  0  0
   -1.8737  -51.9279  -26.4643 C   0  0  0  0  0  0  0  0  0  0  0  0
   -0.5674  -51.8958  -26.0321 C   0  0  0  0  0  0  0  0  0  0  0  0
    0.4445  -52.3316  -26.8548 C   0  0  0  0  0  0  0  0  0  0  0  0
    1.4285  -53.5504  -29.6764 H   0  0  0  0  0  0  0  0  0  0  0  0
    2.7357  -48.5828  -21.1952 C   0  0  0  0  0  0  0  0  0  0  0  0
    2.1678  -47.6323  -20.6775 O   0  0  0  0  0  0  0  0  0  0  0  0
    2.4883  -49.8666  -20.6707 N   0  0  0  0  0  0  0  0  0  0  0  0
    2.9338  -50.7092  -21.1679 H   0  0  0  0  0  0  0  0  0  0  0  0
    1.7005  -50.2518  -19.5174 C   0  0  0  0  0  0  0  0  0  0  0  0
    2.2886  -49.5695  -18.3269 C   0  0  0  0  0  0  0  0  0  0  0  0
    3.3050  -50.2049  -17.8311 O   0  0  0  0  0  0  0  0  0  0  0  0
    1.9262  -48.3827  -17.6942 N   0  0  0  0  0  0  0  0  0  0  0  0
    1.0991  -47.8522  -18.0450 H   0  0  0  0  0  0  0  0  0  0  0  0
    2.6449  -47.8420  -16.5587 C   0  0  0  0  0  0  0  0  0  0  0  0
    1.8474  -47.8367  -15.3430 C   0  0  0  0  0  0  0  0  0  0  0  0
    1.9996  -46.8487  -14.2933 N   0  0  0  0  0  0  0  0  0  0  0  0
    0.9247  -48.6900  -15.0530 O   0  0  0  0  0  0  0  0  0  0  0  0
    1.2101  -46.2201  -14.0227 H   0  0  0  0  0  0  0  0  0  0  0  0
    2.8844  -46.7331  -13.7787 H   0  0  0  0  0  0  0  0  0  0  0  0
    3.2399  -46.5258  -16.8682 C   0  0  0  0  0  0  0  0  0  0  0  0
    4.6856  -46.7292  -17.2131 C   0  0  0  0  0  0  0  0  0  0  0  0
    4.9183  -46.6821  -18.6802 C   0  0  0  0  0  0  0  0  0  0  0  0
    6.1043  -47.5545  -19.0472 C   0  0  0  0  0  0  0  0  0  0  0  0
    5.7323  -48.9262  -18.8609 N   0  0  0  0  0  0  0  0  0  0  0  0
    4.7049  -49.0400  -18.9789 H   0  0  0  0  0  0  0  0  0  0  0  0
    6.2346  -49.5196  -19.5355 H   0  0  0  0  0  0  0  0  0  0  0  0
    1.9333  -51.7586  -19.3062 C   0  0  0  0  0  0  0  0  0  0  0  0
    0.6674  -52.4966  -19.5876 C   0  0  0  0  0  0  0  0  0  0  0  0
   -0.3502  -52.7959  -18.7044 C   0  0  0  0  0  0  0  0  0  0  0  0
   -1.3261  -53.4582  -19.3319 N   0  0  0  0  0  0  0  0  0  0  0  0
   -0.9987  -53.6206  -20.6520 C   0  0  0  0  0  0  0  0  0  0  0  0
   -1.6517  -54.2082  -21.7036 C   0  0  0  0  0  0  0  0  0  0  0  0
   -1.0543  -54.2015  -22.9436 C   0  0  0  0  0  0  0  0  0  0  0  0
    0.1920  -53.5985  -23.0874 C   0  0  0  0  0  0  0  0  0  0  0  0
    0.8391  -53.0156  -22.0386 C   0  0  0  0  0  0  0  0  0  0  0  0
    0.2488  -53.0212  -20.8117 C   0  0  0  0  0  0  0  0  0  0  0  0
   -2.2162  -53.8090  -18.8962 H   0  0  0  0  0  0  0  0  0  0  0  0
    4.2721  -47.2141  -22.5125 C   0  0  0  0  0  0  0  0  0  0  0  0
    3.6791  -46.3115  -23.4916 C   0  0  0  0  0  0  0  0  0  0  0  0
    3.7671  -44.8403  -23.2932 C   0  0  0  0  0  0  0  0  0  0  0  0
    3.8363  -44.5082  -21.8631 N   0  0  0  0  0  0  0  0  0  0  0  0
    4.6451  -43.6011  -21.4739 C   0  0  0  0  0  0  0  0  0  0  0  0
    5.4817  -42.8987  -22.3536 N   0  0  0  0  0  0  0  0  0  0  0  0
    4.6857  -43.2926  -20.0741 N   0  0  0  0  0  0  0  0  0  0  0  0
    5.6348  -41.8641  -22.1530 H   0  0  0  0  0  0  0  0  0  0  0  0
    5.9513  -43.3251  -23.1554 H   0  0  0  0  0  0  0  0  0  0  0  0
    5.4301  -43.6409  -19.4700 H   0  0  0  0  0  0  0  0  0  0  0  0
    3.9369  -42.6907  -19.6475 H   0  0  0  0  0  0  0  0  0  0  0  0
 16 17  1  0  0  0
 17 18  1  0  0  0
 17 15  1  0  0  0
 15 11  1  0  0  0
 11 12  1  0  0  0
 11  7  1  0  0  0
  7  8  2  0  0  0
  7  9  1  0  0  0
  9  6  1  0  0  0
  6 19  1  0  0  0
 19 20  1  0  0  0
 20 21  2  0  0  0
 21 22  1  0  0  0
 22 23  1  0  0  0
 23 24  2  0  0  0
 24 25  1  0  0  0
 25 26  2  0  0  0
 26 27  1  0  0  0
 27 28  2  0  0  0
  6  2  1  0  0  0
  2  3  2  0  0  0
  2  4  1  0  0  0
  4  1  1  0  0  0
  1 63  1  0  0  0
 63 64  1  0  0  0
 64 65  1  0  0  0
 65 66  1  0  0  0
 66 67  2  0  0  0
 67 68  1  0  0  0
 67 69  1  0  0  0
  1 30  1  0  0  0
 30 31  2  0  0  0
 30 32  1  0  0  0
 32 34  1  0  0  0
 34 52  1  0  0  0
 52 53  1  0  0  0
 53 54  2  0  0  0
 54 55  1  0  0  0
 55 56  1  0  0  0
 56 57  2  0  0  0
 57 58  1  0  0  0
 58 59  2  0  0  0
 59 60  1  0  0  0
 60 61  2  0  0  0
 34 35  1  0  0  0
 35 36  2  0  0  0
 35 37  1  0  0  0
 37 39  1  0  0  0
 39 45  1  0  0  0
 45 46  1  0  0  0
 46 47  1  0  0  0
 47 48  1  0  0  0
 48 49  1  0  0  0
 39 40  1  0  0  0
 40 41  1  0  0  0
 40 42  2  0  0  0
 28 20  1  0  0  0
 61 53  1  0  0  0
 28 23  1  0  0  0
 61 56  1  0  0  0
 12 13  1  0  0  0
 12 14  1  0  0  0
  9 10  1  0  0  0
 22 29  1  0  0  0
  4  5  1  0  0  0
 68 70  1  0  0  0
 68 71  1  0  0  0
 69 72  1  0  0  0
 69 73  1  0  0  0
 32 33  1  0  0  0
 55 62  1  0  0  0
 37 38  1  0  0  0
 49 50  1  0  0  0
 49 51  1  0  0  0
 41 43  1  0  0  0
 41 44  1  0  0  0
M  END
> <minimizedAffinity>
-7.30421

> <CNNscore>
0.2309264988

> <CNNaffinity>
7.5989570618

> <CNN_VS>
1.7548005581

> <CNNaffinity_variance>
0.9316169620

$$$$
[H]C1=C([H])C([H])(F)C([H])([H])C([H])=C1N([H])C(=O)C1(C(=O)N([H])c2c([H])c([H])c(Oc3c([H])c([H])nc4c([H])c(OC([H])([H])C([H])([H])C([H])([H])N5C([H])([H])C([H])([H])OC([H])([H])C5([H])[H])c(OC([H])([H])[H])c([H])c34)c(F)c2[H])C([H])([H])C1([H])[H]


 48 53  0  0  0  0  0  0  0  0999 V2000
    1.7276  -51.5755  -24.0933 C   0  0  0  0  0  0  0  0  0  0  0  0
    2.1817  -50.4198  -23.4731 C   0  0  0  0  0  0  0  0  0  0  0  0
    3.4948  -50.0801  -23.3365 C   0  0  0  0  0  0  0  0  0  0  0  0
    4.4744  -50.9389  -23.8479 C   0  0  0  0  0  0  0  0  0  0  0  0
    4.0696  -52.0894  -24.4684 C   0  0  0  0  0  0  0  0  0  0  0  0
    2.7087  -52.4132  -24.5947 C   0  0  0  0  0  0  0  0  0  0  0  0
    2.3875  -53.5558  -25.2448 F   0  0  0  0  0  0  0  0  0  0  0  0
    5.8555  -50.5472  -23.7352 N   0  0  0  0  0  0  0  0  0  0  0  0
    6.4336  -49.5979  -24.5465 C   0  0  0  0  0  0  0  0  0  0  0  0
    5.6661  -49.0881  -25.4604 O   0  0  0  0  0  0  0  0  0  0  0  0
    6.3751  -51.0625  -23.0084 H   0  0  0  0  0  0  0  0  0  0  0  0
    7.8070  -49.0393  -24.5714 C   0  0  0  0  0  0  0  0  0  0  0  0
    8.5731  -49.1926  -23.2683 C   0  0  0  0  0  0  0  0  0  0  0  0
    8.0025  -47.8733  -23.5235 C   0  0  0  0  0  0  0  0  0  0  0  0
    8.5991  -48.8476  -25.7867 C   0  0  0  0  0  0  0  0  0  0  0  0
    9.6928  -49.5765  -25.8150 O   0  0  0  0  0  0  0  0  0  0  0  0
    8.4358  -48.0608  -26.9204 N   0  0  0  0  0  0  0  0  0  0  0  0
    7.6253  -47.4428  -27.0896 H   0  0  0  0  0  0  0  0  0  0  0  0
    9.4252  -48.0866  -27.9980 C   0  0  0  0  0  0  0  0  0  0  0  0
    9.0912  -48.7066  -29.1069 C   0  0  0  0  0  0  0  0  0  0  0  0
    9.9259  -48.8458  -30.2964 C   0  0  0  0  0  0  0  0  0  0  0  0
   11.2809  -48.2624  -30.1927 C   0  0  0  0  0  0  0  0  0  0  0  0
   11.4647  -47.2958  -31.2144 F   0  0  0  0  0  0  0  0  0  0  0  0
   11.5523  -47.5947  -28.9183 C   0  0  0  0  0  0  0  0  0  0  0  0
   10.7226  -47.5000  -27.8992 C   0  0  0  0  0  0  0  0  0  0  0  0
    0.3841  -51.8598  -24.2020 O   0  0  0  0  0  0  0  0  0  0  0  0
    0.0346  -51.6695  -20.1264 C   0  0  0  0  0  0  0  0  0  0  0  0
    0.1599  -51.7172  -21.4876 C   0  0  0  0  0  0  0  0  0  0  0  0
   -0.2932  -52.8323  -22.1590 C   0  0  0  0  0  0  0  0  0  0  0  0
   -0.1827  -52.9279  -23.5631 C   0  0  0  0  0  0  0  0  0  0  0  0
   -0.6365  -54.0514  -24.2131 C   0  0  0  0  0  0  0  0  0  0  0  0
   -1.2041  -55.0946  -23.5153 C   0  0  0  0  0  0  0  0  0  0  0  0
   -1.3088  -55.0004  -22.1804 N   0  0  0  0  0  0  0  0  0  0  0  0
   -0.8656  -53.8982  -21.5143 C   0  0  0  0  0  0  0  0  0  0  0  0
   -0.9900  -53.8446  -20.1343 C   0  0  0  0  0  0  0  0  0  0  0  0
   -0.5486  -52.7457  -19.4372 C   0  0  0  0  0  0  0  0  0  0  0  0
    1.2505  -49.5941  -19.9308 C   0  0  0  0  0  0  0  0  0  0  0  0
    0.4545  -50.6038  -19.3539 O   0  0  0  0  0  0  0  0  0  0  0  0
   -0.6729  -52.6799  -18.0880 O   0  0  0  0  0  0  0  0  0  0  0  0
   -1.8512  -52.8285  -17.3828 C   0  0  0  0  0  0  0  0  0  0  0  0
   -1.9294  -51.9002  -16.1788 C   0  0  0  0  0  0  0  0  0  0  0  0
   -0.6721  -51.0204  -16.1687 C   0  0  0  0  0  0  0  0  0  0  0  0
    0.1985  -51.5003  -15.1247 N   0  0  0  0  0  0  0  0  0  0  0  0
    1.1894  -50.4549  -14.7781 C   0  0  0  0  0  0  0  0  0  0  0  0
    1.9513  -51.0392  -13.5849 C   0  0  0  0  0  0  0  0  0  0  0  0
    1.7707  -52.4173  -13.4681 O   0  0  0  0  0  0  0  0  0  0  0  0
    0.4432  -52.7458  -13.1287 C   0  0  0  0  0  0  0  0  0  0  0  0
   -0.5053  -51.8019  -13.8794 C   0  0  0  0  0  0  0  0  0  0  0  0
 37 38  1  0  0  0
 38 27  1  0  0  0
 27 28  2  0  0  0
 28 29  1  0  0  0
 29 30  2  0  0  0
 30 26  1  0  0  0
 26  1  1  0  0  0
  1  2  2  0  0  0
  2  3  1  0  0  0
  3  4  2  0  0  0
  4  8  1  0  0  0
  8  9  1  0  0  0
  9 10  2  0  0  0
  9 12  1  0  0  0
 12 13  1  0  0  0
 13 14  1  0  0  0
 12 15  1  0  0  0
 15 16  2  0  0  0
 15 17  1  0  0  0
 17 19  1  0  0  0
 19 20  2  0  0  0
 20 21  1  0  0  0
 21 22  1  0  0  0
 22 23  1  0  0  0
 22 24  1  0  0  0
 24 25  2  0  0  0
  4  5  1  0  0  0
  5  6  2  0  0  0
  6  7  1  0  0  0
 30 31  1  0  0  0
 31 32  2  0  0  0
 32 33  1  0  0  0
 33 34  2  0  0  0
 34 35  1  0  0  0
 35 36  2  0  0  0
 36 39  1  0  0  0
 39 40  1  0  0  0
 40 41  1  0  0  0
 41 42  1  0  0  0
 42 43  1  0  0  0
 43 44  1  0  0  0
 44 45  1  0  0  0
 45 46  1  0  0  0
 46 47  1  0  0  0
 47 48  1  0  0  0
 36 27  1  0  0  0
 48 43  1  0  0  0
 34 29  1  0  0  0
  6  1  1  0  0  0
 14 12  1  0  0  0
 25 19  1  0  0  0
  8 11  1  0  0  0
 17 18  1  0  0  0
M  END
> <minimizedAffinity>
-8.19885

> <CNNscore>
0.4564224184

> <CNNaffinity>
7.0713205338

> <CNN_VS>
3.2275092602

> <CNNaffinity_variance>
0.0373359397

$$$$
[H]C1=C([H])C([H])(F)C([H])([H])C([H])=C1N([H])C(=O)C1(C(=O)N([H])c2c([H])c([H])c(Oc3c([H])c([H])nc4c([H])c(OC([H])([H])C([H])([H])C([H])([H])N5C([H])([H])C([H])([H])OC([H])([H])C5([H])[H])c(OC([H])([H])[H])c([H])c34)c(F)c2[H])C([H])([H])C1([H])[H]


 48 53  0  0  0  0  0  0  0  0999 V2000
    1.7345  -51.4919  -23.9831 C   0  0  0  0  0  0  0  0  0  0  0  0
    2.1666  -50.3080  -23.4019 C   0  0  0  0  0  0  0  0  0  0  0  0
    3.4739  -49.9538  -23.2481 C   0  0  0  0  0  0  0  0  0  0  0  0
    4.4706  -50.8269  -23.6986 C   0  0  0  0  0  0  0  0  0  0  0  0
    4.0878  -52.0054  -24.2791 C   0  0  0  0  0  0  0  0  0  0  0  0
    2.7324  -52.3435  -24.4244 C   0  0  0  0  0  0  0  0  0  0  0  0
    2.4338  -53.5148  -25.0329 F   0  0  0  0  0  0  0  0  0  0  0  0
    5.8463  -50.4214  -23.5692 N   0  0  0  0  0  0  0  0  0  0  0  0
    6.4531  -49.5425  -24.4371 C   0  0  0  0  0  0  0  0  0  0  0  0
    5.7194  -49.1159  -25.4187 O   0  0  0  0  0  0  0  0  0  0  0  0
    6.3392  -50.8706  -22.7824 H   0  0  0  0  0  0  0  0  0  0  0  0
    7.8260  -48.9826  -24.4593 C   0  0  0  0  0  0  0  0  0  0  0  0
    8.5896  -49.1348  -23.1546 C   0  0  0  0  0  0  0  0  0  0  0  0
    8.0182  -47.8161  -23.4113 C   0  0  0  0  0  0  0  0  0  0  0  0
    8.6204  -48.7903  -25.6730 C   0  0  0  0  0  0  0  0  0  0  0  0
    9.6769  -49.5705  -25.7321 O   0  0  0  0  0  0  0  0  0  0  0  0
    8.4901  -47.9600  -26.7796 N   0  0  0  0  0  0  0  0  0  0  0  0
    7.7101  -47.2980  -26.9234 H   0  0  0  0  0  0  0  0  0  0  0  0
    9.4717  -47.9991  -27.8640 C   0  0  0  0  0  0  0  0  0  0  0  0
    9.1770  -48.7281  -28.9164 C   0  0  0  0  0  0  0  0  0  0  0  0
   10.0119  -48.9001  -30.1015 C   0  0  0  0  0  0  0  0  0  0  0  0
   11.3207  -48.2128  -30.0609 C   0  0  0  0  0  0  0  0  0  0  0  0
   11.4259  -47.3197  -31.1579 F   0  0  0  0  0  0  0  0  0  0  0  0
   11.5505  -47.4277  -28.8466 C   0  0  0  0  0  0  0  0  0  0  0  0
   10.7228  -47.3131  -27.8280 C   0  0  0  0  0  0  0  0  0  0  0  0
    0.3957  -51.7897  -24.1121 O   0  0  0  0  0  0  0  0  0  0  0  0
    0.0146  -51.6492  -20.0373 C   0  0  0  0  0  0  0  0  0  0  0  0
    0.1503  -51.6802  -21.3980 C   0  0  0  0  0  0  0  0  0  0  0  0
   -0.2896  -52.7907  -22.0856 C   0  0  0  0  0  0  0  0  0  0  0  0
   -0.1679  -52.8693  -23.4898 C   0  0  0  0  0  0  0  0  0  0  0  0
   -0.6086  -53.9885  -24.1561 C   0  0  0  0  0  0  0  0  0  0  0  0
   -1.1736  -55.0438  -23.4746 C   0  0  0  0  0  0  0  0  0  0  0  0
   -1.2889  -54.9658  -22.1395 N   0  0  0  0  0  0  0  0  0  0  0  0
   -0.8588  -53.8681  -21.4575 C   0  0  0  0  0  0  0  0  0  0  0  0
   -0.9938  -53.8315  -20.0780 C   0  0  0  0  0  0  0  0  0  0  0  0
   -0.5657  -52.7375  -19.3650 C   0  0  0  0  0  0  0  0  0  0  0  0
    1.3245  -49.6403  -19.7677 C   0  0  0  0  0  0  0  0  0  0  0  0
    0.4208  -50.5894  -19.2495 O   0  0  0  0  0  0  0  0  0  0  0  0
   -0.7005  -52.6882  -18.0160 O   0  0  0  0  0  0  0  0  0  0  0  0
   -1.8970  -52.7318  -17.3273 C   0  0  0  0  0  0  0  0  0  0  0  0
   -1.8177  -52.0296  -15.9789 C   0  0  0  0  0  0  0  0  0  0  0  0
   -1.1588  -50.6597  -16.1892 C   0  0  0  0  0  0  0  0  0  0  0  0
   -1.7900  -49.7205  -15.2962 N   0  0  0  0  0  0  0  0  0  0  0  0
   -1.4910  -50.0853  -13.8917 C   0  0  0  0  0  0  0  0  0  0  0  0
   -2.1016  -48.9470  -13.0690 C   0  0  0  0  0  0  0  0  0  0  0  0
   -3.0242  -48.2020  -13.8035 O   0  0  0  0  0  0  0  0  0  0  0  0
   -2.4068  -47.4818  -14.8453 C   0  0  0  0  0  0  0  0  0  0  0  0
   -1.3019  -48.3522  -15.4585 C   0  0  0  0  0  0  0  0  0  0  0  0
 37 38  1  0  0  0
 38 27  1  0  0  0
 27 28  2  0  0  0
 28 29  1  0  0  0
 29 30  2  0  0  0
 30 26  1  0  0  0
 26  1  1  0  0  0
  1  2  2  0  0  0
  2  3  1  0  0  0
  3  4  2  0  0  0
  4  8  1  0  0  0
  8  9  1  0  0  0
  9 10  2  0  0  0
  9 12  1  0  0  0
 12 13  1  0  0  0
 13 14  1  0  0  0
 12 15  1  0  0  0
 15 16  2  0  0  0
 15 17  1  0  0  0
 17 19  1  0  0  0
 19 20  2  0  0  0
 20 21  1  0  0  0
 21 22  1  0  0  0
 22 23  1  0  0  0
 22 24  1  0  0  0
 24 25  2  0  0  0
  4  5  1  0  0  0
  5  6  2  0  0  0
  6  7  1  0  0  0
 30 31  1  0  0  0
 31 32  2  0  0  0
 32 33  1  0  0  0
 33 34  2  0  0  0
 34 35  1  0  0  0
 35 36  2  0  0  0
 36 39  1  0  0  0
 39 40  1  0  0  0
 40 41  1  0  0  0
 41 42  1  0  0  0
 42 43  1  0  0  0
 43 44  1  0  0  0
 44 45  1  0  0  0
 45 46  1  0  0  0
 46 47  1  0  0  0
 47 48  1  0  0  0
 36 27  1  0  0  0
 48 43  1  0  0  0
 34 29  1  0  0  0
  6  1  1  0  0  0
 14 12  1  0  0  0
 25 19  1  0  0  0
  8 11  1  0  0  0
 17 18  1  0  0  0
M  END
> <minimizedAffinity>
-8.00031

> <CNNscore>
0.4547471702

> <CNNaffinity>
6.9948129654

> <CNN_VS>
3.1808714867

> <CNNaffinity_variance>
0.0602880046

$$$$
[H]C1=C([H])C([H])(F)C([H])([H])C([H])=C1N([H])C(=O)C1(C(=O)N([H])c2c([H])c([H])c(Oc3c([H])c([H])nc4c([H])c(OC([H])([H])C([H])([H])C([H])([H])N5C([H])([H])C([H])([H])OC([H])([H])C5([H])[H])c(OC([H])([H])[H])c([H])c34)c(F)c2[H])C([H])([H])C1([H])[H]


 48 53  0  0  0  0  0  0  0  0999 V2000
    1.6362  -51.6396  -24.4108 C   0  0  0  0  0  0  0  0  0  0  0  0
    2.0364  -50.3932  -23.9496 C   0  0  0  0  0  0  0  0  0  0  0  0
    3.3329  -49.9822  -23.8574 C   0  0  0  0  0  0  0  0  0  0  0  0
    4.3517  -50.8587  -24.2480 C   0  0  0  0  0  0  0  0  0  0  0  0
    4.0005  -52.0979  -24.7101 C   0  0  0  0  0  0  0  0  0  0  0  0
    2.6556  -52.4938  -24.7943 C   0  0  0  0  0  0  0  0  0  0  0  0
    2.3878  -53.7256  -25.2866 F   0  0  0  0  0  0  0  0  0  0  0  0
    5.7141  -50.3965  -24.1864 N   0  0  0  0  0  0  0  0  0  0  0  0
    6.2010  -49.3905  -24.9891 C   0  0  0  0  0  0  0  0  0  0  0  0
    5.3640  -48.8928  -25.8468 O   0  0  0  0  0  0  0  0  0  0  0  0
    6.2950  -50.9070  -23.5039 H   0  0  0  0  0  0  0  0  0  0  0  0
    7.5403  -48.7576  -25.0584 C   0  0  0  0  0  0  0  0  0  0  0  0
    7.9296  -48.2567  -26.4390 C   0  0  0  0  0  0  0  0  0  0  0  0
    8.5210  -49.5270  -26.0291 C   0  0  0  0  0  0  0  0  0  0  0  0
    8.2299  -48.1557  -23.9168 C   0  0  0  0  0  0  0  0  0  0  0  0
    8.4285  -46.8632  -24.0516 O   0  0  0  0  0  0  0  0  0  0  0  0
    8.7143  -48.6621  -22.7169 N   0  0  0  0  0  0  0  0  0  0  0  0
    8.6268  -49.6485  -22.4223 H   0  0  0  0  0  0  0  0  0  0  0  0
    9.3745  -47.7870  -21.7476 C   0  0  0  0  0  0  0  0  0  0  0  0
    8.6545  -47.3581  -20.7361 C   0  0  0  0  0  0  0  0  0  0  0  0
    9.1183  -46.4835  -19.6631 C   0  0  0  0  0  0  0  0  0  0  0  0
   10.5184  -46.0220  -19.7811 C   0  0  0  0  0  0  0  0  0  0  0  0
   11.2487  -46.4113  -18.6292 F   0  0  0  0  0  0  0  0  0  0  0  0
   11.2324  -46.5575  -20.9417 C   0  0  0  0  0  0  0  0  0  0  0  0
   10.7338  -47.3652  -21.8553 C   0  0  0  0  0  0  0  0  0  0  0  0
    0.3068  -51.9933  -24.4828 O   0  0  0  0  0  0  0  0  0  0  0  0
    0.2152  -51.4149  -20.4299 C   0  0  0  0  0  0  0  0  0  0  0  0
    0.2543  -51.5923  -21.7855 C   0  0  0  0  0  0  0  0  0  0  0  0
   -0.2398  -52.7636  -22.3180 C   0  0  0  0  0  0  0  0  0  0  0  0
   -0.2181  -52.9927  -23.7107 C   0  0  0  0  0  0  0  0  0  0  0  0
   -0.7116  -54.1703  -24.2211 C   0  0  0  0  0  0  0  0  0  0  0  0
   -1.2336  -55.1393  -23.3928 C   0  0  0  0  0  0  0  0  0  0  0  0
   -1.2539  -54.9182  -22.0690 N   0  0  0  0  0  0  0  0  0  0  0  0
   -0.7699  -53.7602  -21.5401 C   0  0  0  0  0  0  0  0  0  0  0  0
   -0.8069  -53.5751  -20.1663 C   0  0  0  0  0  0  0  0  0  0  0  0
   -0.3229  -52.4175  -19.6061 C   0  0  0  0  0  0  0  0  0  0  0  0
    1.1732  -49.2032  -20.5513 C   0  0  0  0  0  0  0  0  0  0  0  0
    0.6826  -50.2830  -19.7902 O   0  0  0  0  0  0  0  0  0  0  0  0
   -0.3617  -52.2231  -18.2641 O   0  0  0  0  0  0  0  0  0  0  0  0
   -1.3278  -52.7175  -17.4096 C   0  0  0  0  0  0  0  0  0  0  0  0
   -1.4379  -51.9075  -16.1254 C   0  0  0  0  0  0  0  0  0  0  0  0
   -2.9264  -51.6943  -15.8186 C   0  0  0  0  0  0  0  0  0  0  0  0
   -3.0436  -50.5397  -14.9636 N   0  0  0  0  0  0  0  0  0  0  0  0
   -2.7333  -50.9178  -13.5651 C   0  0  0  0  0  0  0  0  0  0  0  0
   -2.7655  -49.5912  -12.8005 C   0  0  0  0  0  0  0  0  0  0  0  0
   -3.4234  -48.5884  -13.5126 O   0  0  0  0  0  0  0  0  0  0  0  0
   -2.7138  -48.2157  -14.6714 C   0  0  0  0  0  0  0  0  0  0  0  0
   -2.1012  -49.4741  -15.3002 C   0  0  0  0  0  0  0  0  0  0  0  0
 37 38  1  0  0  0
 38 27  1  0  0  0
 27 28  2  0  0  0
 28 29  1  0  0  0
 29 30  2  0  0  0
 30 26  1  0  0  0
 26  1  1  0  0  0
  1  2  2  0  0  0
  2  3  1  0  0  0
  3  4  2  0  0  0
  4  8  1  0  0  0
  8  9  1  0  0  0
  9 10  2  0  0  0
  9 12  1  0  0  0
 12 13  1  0  0  0
 13 14  1  0  0  0
 12 15  1  0  0  0
 15 16  2  0  0  0
 15 17  1  0  0  0
 17 19  1  0  0  0
 19 20  2  0  0  0
 20 21  1  0  0  0
 21 22  1  0  0  0
 22 23  1  0  0  0
 22 24  1  0  0  0
 24 25  2  0  0  0
  4  5  1  0  0  0
  5  6  2  0  0  0
  6  7  1  0  0  0
 30 31  1  0  0  0
 31 32  2  0  0  0
 32 33  1  0  0  0
 33 34  2  0  0  0
 34 35  1  0  0  0
 35 36  2  0  0  0
 36 39  1  0  0  0
 39 40  1  0  0  0
 40 41  1  0  0  0
 41 42  1  0  0  0
 42 43  1  0  0  0
 43 44  1  0  0  0
 44 45  1  0  0  0
 45 46  1  0  0  0
 46 47  1  0  0  0
 47 48  1  0  0  0
 36 27  1  0  0  0
 48 43  1  0  0  0
 34 29  1  0  0  0
  6  1  1  0  0  0
 14 12  1  0  0  0
 25 19  1  0  0  0
  8 11  1  0  0  0
 17 18  1  0  0  0
M  END
> <minimizedAffinity>
-7.54730

> <CNNscore>
0.3600509167

> <CNNaffinity>
6.8949394226

> <CNN_VS>
2.4825291634

> <CNNaffinity_variance>
0.1480510384

$$$$
[H]C1=C([H])C([H])(F)C([H])([H])C([H])=C1N([H])C(=O)C1(C(=O)N([H])c2c([H])c([H])c(Oc3c([H])c([H])nc4c([H])c(OC([H])([H])C([H])([H])C([H])([H])N5C([H])([H])C([H])([H])OC([H])([H])C5([H])[H])c(OC([H])([H])[H])c([H])c34)c(F)c2[H])C([H])([H])C1([H])[H]


 48 53  0  0  0  0  0  0  0  0999 V2000
    0.6425  -51.2357  -24.4189 C   0  0  0  0  0  0  0  0  0  0  0  0
    1.7625  -50.6396  -23.8563 C   0  0  0  0  0  0  0  0  0  0  0  0
    2.8757  -50.2730  -24.5524 C   0  0  0  0  0  0  0  0  0  0  0  0
    2.9190  -50.5026  -25.9322 C   0  0  0  0  0  0  0  0  0  0  0  0
    1.8346  -51.0876  -26.5276 C   0  0  0  0  0  0  0  0  0  0  0  0
    0.7008  -51.4546  -25.7844 C   0  0  0  0  0  0  0  0  0  0  0  0
   -0.3418  -52.0039  -26.4498 F   0  0  0  0  0  0  0  0  0  0  0  0
    4.0828  -50.0712  -26.6624 N   0  0  0  0  0  0  0  0  0  0  0  0
    4.2249  -48.7963  -27.1603 C   0  0  0  0  0  0  0  0  0  0  0  0
    3.2223  -47.9956  -26.9661 O   0  0  0  0  0  0  0  0  0  0  0  0
    4.7859  -50.8135  -26.7987 H   0  0  0  0  0  0  0  0  0  0  0  0
    5.3389  -48.1545  -27.8993 C   0  0  0  0  0  0  0  0  0  0  0  0
    6.6948  -48.2758  -27.2246 C   0  0  0  0  0  0  0  0  0  0  0  0
    6.0181  -46.9909  -27.0743 C   0  0  0  0  0  0  0  0  0  0  0  0
    5.3366  -47.9007  -29.3403 C   0  0  0  0  0  0  0  0  0  0  0  0
    4.1288  -47.7782  -29.8449 O   0  0  0  0  0  0  0  0  0  0  0  0
    6.3431  -47.7562  -30.2874 N   0  0  0  0  0  0  0  0  0  0  0  0
    7.3535  -47.7940  -30.0752 H   0  0  0  0  0  0  0  0  0  0  0  0
    6.0186  -47.4999  -31.6910 C   0  0  0  0  0  0  0  0  0  0  0  0
    5.9834  -48.5350  -32.4991 C   0  0  0  0  0  0  0  0  0  0  0  0
    5.6801  -48.4984  -33.9267 C   0  0  0  0  0  0  0  0  0  0  0  0
    5.4391  -47.1525  -34.4900 C   0  0  0  0  0  0  0  0  0  0  0  0
    4.1498  -47.1048  -35.0795 F   0  0  0  0  0  0  0  0  0  0  0  0
    5.5004  -46.0692  -33.5070 C   0  0  0  0  0  0  0  0  0  0  0  0
    5.7632  -46.2002  -32.2226 C   0  0  0  0  0  0  0  0  0  0  0  0
   -0.4541  -51.5799  -23.6596 O   0  0  0  0  0  0  0  0  0  0  0  0
    0.4155  -50.5786  -19.7853 C   0  0  0  0  0  0  0  0  0  0  0  0
    0.1274  -50.8958  -21.0842 C   0  0  0  0  0  0  0  0  0  0  0  0
   -0.1090  -52.2138  -21.4107 C   0  0  0  0  0  0  0  0  0  0  0  0
   -0.4072  -52.5896  -22.7383 C   0  0  0  0  0  0  0  0  0  0  0  0
   -0.6349  -53.9108  -23.0438 C   0  0  0  0  0  0  0  0  0  0  0  0
   -0.5791  -54.8841  -22.0707 C   0  0  0  0  0  0  0  0  0  0  0  0
   -0.2962  -54.5237  -20.8090 N   0  0  0  0  0  0  0  0  0  0  0  0
   -0.0661  -53.2216  -20.4823 C   0  0  0  0  0  0  0  0  0  0  0  0
    0.2267  -52.8944  -19.1671 C   0  0  0  0  0  0  0  0  0  0  0  0
    0.4657  -51.5890  -18.8107 C   0  0  0  0  0  0  0  0  0  0  0  0
    1.8892  -48.6704  -19.6801 C   0  0  0  0  0  0  0  0  0  0  0  0
    0.6695  -49.2931  -19.3474 O   0  0  0  0  0  0  0  0  0  0  0  0
    0.7450  -51.2571  -17.5253 O   0  0  0  0  0  0  0  0  0  0  0  0
   -0.0671  -51.5100  -16.4370 C   0  0  0  0  0  0  0  0  0  0  0  0
    0.5152  -50.9690  -15.1387 C   0  0  0  0  0  0  0  0  0  0  0  0
    2.0422  -51.1068  -15.2034 C   0  0  0  0  0  0  0  0  0  0  0  0
    2.4732  -51.8349  -14.0363 N   0  0  0  0  0  0  0  0  0  0  0  0
    3.8700  -52.2937  -14.2190 C   0  0  0  0  0  0  0  0  0  0  0  0
    4.2376  -52.9262  -12.8735 C   0  0  0  0  0  0  0  0  0  0  0  0
    3.1118  -53.2182  -12.1035 O   0  0  0  0  0  0  0  0  0  0  0  0
    2.4475  -52.0498  -11.6808 C   0  0  0  0  0  0  0  0  0  0  0  0
    2.4828  -51.0231  -12.8206 C   0  0  0  0  0  0  0  0  0  0  0  0
 37 38  1  0  0  0
 38 27  1  0  0  0
 27 28  2  0  0  0
 28 29  1  0  0  0
 29 30  2  0  0  0
 30 26  1  0  0  0
 26  1  1  0  0  0
  1  2  2  0  0  0
  2  3  1  0  0  0
  3  4  2  0  0  0
  4  8  1  0  0  0
  8  9  1  0  0  0
  9 10  2  0  0  0
  9 12  1  0  0  0
 12 13  1  0  0  0
 13 14  1  0  0  0
 12 15  1  0  0  0
 15 16  2  0  0  0
 15 17  1  0  0  0
 17 19  1  0  0  0
 19 20  2  0  0  0
 20 21  1  0  0  0
 21 22  1  0  0  0
 22 23  1  0  0  0
 22 24  1  0  0  0
 24 25  2  0  0  0
  4  5  1  0  0  0
  5  6  2  0  0  0
  6  7  1  0  0  0
 30 31  1  0  0  0
 31 32  2  0  0  0
 32 33  1  0  0  0
 33 34  2  0  0  0
 34 35  1  0  0  0
 35 36  2  0  0  0
 36 39  1  0  0  0
 39 40  1  0  0  0
 40 41  1  0  0  0
 41 42  1  0  0  0
 42 43  1  0  0  0
 43 44  1  0  0  0
 44 45  1  0  0  0
 45 46  1  0  0  0
 46 47  1  0  0  0
 47 48  1  0  0  0
 36 27  1  0  0  0
 48 43  1  0  0  0
 34 29  1  0  0  0
  6  1  1  0  0  0
 14 12  1  0  0  0
 25 19  1  0  0  0
  8 11  1  0  0  0
 17 18  1  0  0  0
M  END
> <minimizedAffinity>
-7.65643

> <CNNscore>
0.3306949735

> <CNNaffinity>
6.6529259682

> <CNN_VS>
2.2000892162

> <CNNaffinity_variance>
0.2286530435

$$$$
[H]C1=C([H])C([H])(F)C([H])([H])C([H])=C1N([H])C(=O)C1(C(=O)N([H])c2c([H])c([H])c(Oc3c([H])c([H])nc4c([H])c(OC([H])([H])C([H])([H])C([H])([H])N5C([H])([H])C([H])([H])OC([H])([H])C5([H])[H])c(OC([H])([H])[H])c([H])c34)c(F)c2[H])C([H])([H])C1([H])[H]


 48 53  0  0  0  0  0  0  0  0999 V2000
    1.7005  -51.3298  -23.8523 C   0  0  0  0  0  0  0  0  0  0  0  0
    2.1307  -50.0810  -23.4261 C   0  0  0  0  0  0  0  0  0  0  0  0
    3.4248  -49.6544  -23.4633 C   0  0  0  0  0  0  0  0  0  0  0  0
    4.4090  -50.5160  -23.9611 C   0  0  0  0  0  0  0  0  0  0  0  0
    4.0274  -51.7570  -24.3932 C   0  0  0  0  0  0  0  0  0  0  0  0
    2.6857  -52.1692  -24.3430 C   0  0  0  0  0  0  0  0  0  0  0  0
    2.3838  -53.4016  -24.8136 F   0  0  0  0  0  0  0  0  0  0  0  0
    5.7650  -50.0372  -24.0351 N   0  0  0  0  0  0  0  0  0  0  0  0
    6.2045  -49.1805  -25.0183 C   0  0  0  0  0  0  0  0  0  0  0  0
    5.3274  -48.8466  -25.9144 O   0  0  0  0  0  0  0  0  0  0  0  0
    6.3798  -50.4165  -23.2989 H   0  0  0  0  0  0  0  0  0  0  0  0
    7.5296  -48.5565  -25.2497 C   0  0  0  0  0  0  0  0  0  0  0  0
    8.3403  -49.1947  -26.3650 C   0  0  0  0  0  0  0  0  0  0  0  0
    8.7214  -49.5643  -25.0051 C   0  0  0  0  0  0  0  0  0  0  0  0
    7.8689  -47.1796  -24.8887 C   0  0  0  0  0  0  0  0  0  0  0  0
    8.1105  -46.4136  -25.9295 O   0  0  0  0  0  0  0  0  0  0  0  0
    7.9842  -46.5095  -23.6769 N   0  0  0  0  0  0  0  0  0  0  0  0
    7.8063  -46.9384  -22.7540 H   0  0  0  0  0  0  0  0  0  0  0  0
    8.3474  -45.0927  -23.6370 C   0  0  0  0  0  0  0  0  0  0  0  0
    7.3675  -44.2226  -23.5447 C   0  0  0  0  0  0  0  0  0  0  0  0
    7.5120  -42.7710  -23.4890 C   0  0  0  0  0  0  0  0  0  0  0  0
    8.8984  -42.2668  -23.5931 C   0  0  0  0  0  0  0  0  0  0  0  0
    9.2125  -41.4917  -22.4474 F   0  0  0  0  0  0  0  0  0  0  0  0
    9.9143  -43.3164  -23.6913 C   0  0  0  0  0  0  0  0  0  0  0  0
    9.6900  -44.6145  -23.7136 C   0  0  0  0  0  0  0  0  0  0  0  0
    0.3749  -51.6997  -23.7912 O   0  0  0  0  0  0  0  0  0  0  0  0
    0.4192  -50.9002  -19.7753 C   0  0  0  0  0  0  0  0  0  0  0  0
    0.4120  -51.1512  -21.1198 C   0  0  0  0  0  0  0  0  0  0  0  0
   -0.0405  -52.3742  -21.5662 C   0  0  0  0  0  0  0  0  0  0  0  0
   -0.0638  -52.6797  -22.9442 C   0  0  0  0  0  0  0  0  0  0  0  0
   -0.5144  -53.9077  -23.3681 C   0  0  0  0  0  0  0  0  0  0  0  0
   -0.9495  -54.8540  -22.4667 C   0  0  0  0  0  0  0  0  0  0  0  0
   -0.9271  -54.5603  -21.1571 N   0  0  0  0  0  0  0  0  0  0  0  0
   -0.4843  -53.3513  -20.7131 C   0  0  0  0  0  0  0  0  0  0  0  0
   -0.4746  -53.0916  -19.3511 C   0  0  0  0  0  0  0  0  0  0  0  0
   -0.0304  -51.8812  -18.8758 C   0  0  0  0  0  0  0  0  0  0  0  0
    1.8291  -48.9445  -19.8831 C   0  0  0  0  0  0  0  0  0  0  0  0
    0.8515  -49.7119  -19.2187 O   0  0  0  0  0  0  0  0  0  0  0  0
   -0.0244  -51.6140  -17.5458 O   0  0  0  0  0  0  0  0  0  0  0  0
   -1.0181  -51.9645  -16.6528 C   0  0  0  0  0  0  0  0  0  0  0  0
   -0.6052  -51.7385  -15.2051 C   0  0  0  0  0  0  0  0  0  0  0  0
    0.7131  -50.9528  -15.1992 C   0  0  0  0  0  0  0  0  0  0  0  0
    1.4706  -51.3634  -14.0435 N   0  0  0  0  0  0  0  0  0  0  0  0
    0.7856  -52.4910  -13.3696 C   0  0  0  0  0  0  0  0  0  0  0  0
    1.7509  -52.9063  -12.2556 C   0  0  0  0  0  0  0  0  0  0  0  0
    2.6984  -51.9192  -11.9842 O   0  0  0  0  0  0  0  0  0  0  0  0
    3.5894  -51.7368  -13.0603 C   0  0  0  0  0  0  0  0  0  0  0  0
    2.8062  -51.8570  -14.3743 C   0  0  0  0  0  0  0  0  0  0  0  0
 37 38  1  0  0  0
 38 27  1  0  0  0
 27 28  2  0  0  0
 28 29  1  0  0  0
 29 30  2  0  0  0
 30 26  1  0  0  0
 26  1  1  0  0  0
  1  2  2  0  0  0
  2  3  1  0  0  0
  3  4  2  0  0  0
  4  8  1  0  0  0
  8  9  1  0  0  0
  9 10  2  0  0  0
  9 12  1  0  0  0
 12 13  1  0  0  0
 13 14  1  0  0  0
 12 15  1  0  0  0
 15 16  2  0  0  0
 15 17  1  0  0  0
 17 19  1  0  0  0
 19 20  2  0  0  0
 20 21  1  0  0  0
 21 22  1  0  0  0
 22 23  1  0  0  0
 22 24  1  0  0  0
 24 25  2  0  0  0
  4  5  1  0  0  0
  5  6  2  0  0  0
  6  7  1  0  0  0
 30 31  1  0  0  0
 31 32  2  0  0  0
 32 33  1  0  0  0
 33 34  2  0  0  0
 34 35  1  0  0  0
 35 36  2  0  0  0
 36 39  1  0  0  0
 39 40  1  0  0  0
 40 41  1  0  0  0
 41 42  1  0  0  0
 42 43  1  0  0  0
 43 44  1  0  0  0
 44 45  1  0  0  0
 45 46  1  0  0  0
 46 47  1  0  0  0
 47 48  1  0  0  0
 36 27  1  0  0  0
 48 43  1  0  0  0
 34 29  1  0  0  0
  6  1  1  0  0  0
 14 12  1  0  0  0
 25 19  1  0  0  0
  8 11  1  0  0  0
 17 18  1  0  0  0
M  END
> <minimizedAffinity>
-6.99283

> <CNNscore>
0.2983422279

> <CNNaffinity>
6.8248314857

> <CNN_VS>
2.0361354351

> <CNNaffinity_variance>
0.2630298734

$$$$
[H]C1=C([H])C([H])(F)C([H])([H])C([H])=C1N([H])C(=O)C1(C(=O)N([H])c2c([H])c([H])c(Oc3c([H])c([H])nc4c([H])c(OC([H])([H])C([H])([H])C([H])([H])N5C([H])([H])C([H])([H])OC([H])([H])C5([H])[H])c(OC([H])([H])[H])c([H])c34)c(F)c2[H])C([H])([H])C1([H])[H]


 48 53  0  0  0  0  0  0  0  0999 V2000
    1.8300  -51.2168  -23.8784 C   0  0  0  0  0  0  0  0  0  0  0  0
    2.5098  -50.1114  -23.3861 C   0  0  0  0  0  0  0  0  0  0  0  0
    3.8257  -49.8445  -23.6213 C   0  0  0  0  0  0  0  0  0  0  0  0
    4.5669  -50.7309  -24.4109 C   0  0  0  0  0  0  0  0  0  0  0  0
    3.9346  -51.8337  -24.9175 C   0  0  0  0  0  0  0  0  0  0  0  0
    2.5769  -52.0826  -24.6583 C   0  0  0  0  0  0  0  0  0  0  0  0
    2.0167  -53.1807  -25.2169 F   0  0  0  0  0  0  0  0  0  0  0  0
    5.9443  -50.4147  -24.6873 N   0  0  0  0  0  0  0  0  0  0  0  0
    6.3247  -49.3842  -25.5161 C   0  0  0  0  0  0  0  0  0  0  0  0
    5.3607  -48.7202  -26.0760 O   0  0  0  0  0  0  0  0  0  0  0  0
    6.6159  -51.0480  -24.2271 H   0  0  0  0  0  0  0  0  0  0  0  0
    7.6668  -48.8833  -25.8994 C   0  0  0  0  0  0  0  0  0  0  0  0
    8.7735  -49.2334  -24.9190 C   0  0  0  0  0  0  0  0  0  0  0  0
    8.2569  -47.8701  -24.8405 C   0  0  0  0  0  0  0  0  0  0  0  0
    8.0712  -48.5695  -27.2702 C   0  0  0  0  0  0  0  0  0  0  0  0
    7.7585  -47.3466  -27.6377 O   0  0  0  0  0  0  0  0  0  0  0  0
    8.7215  -49.2907  -28.2641 N   0  0  0  0  0  0  0  0  0  0  0  0
    9.0673  -50.2578  -28.1516 H   0  0  0  0  0  0  0  0  0  0  0  0
    8.9942  -48.6880  -29.5692 C   0  0  0  0  0  0  0  0  0  0  0  0
    8.0675  -48.8076  -30.4927 C   0  0  0  0  0  0  0  0  0  0  0  0
    8.1389  -48.2811  -31.8524 C   0  0  0  0  0  0  0  0  0  0  0  0
    9.4014  -47.5947  -32.2017 C   0  0  0  0  0  0  0  0  0  0  0  0
    9.1254  -46.2643  -32.6087 F   0  0  0  0  0  0  0  0  0  0  0  0
   10.3663  -47.5148  -31.1035 C   0  0  0  0  0  0  0  0  0  0  0  0
   10.2056  -48.0057  -29.8915 C   0  0  0  0  0  0  0  0  0  0  0  0
    0.4962  -51.4279  -23.6064 O   0  0  0  0  0  0  0  0  0  0  0  0
    0.5041  -50.4908  -19.6201 C   0  0  0  0  0  0  0  0  0  0  0  0
    0.5086  -50.7877  -20.9552 C   0  0  0  0  0  0  0  0  0  0  0  0
    0.0912  -52.0370  -21.3607 C   0  0  0  0  0  0  0  0  0  0  0  0
    0.0812  -52.3900  -22.7274 C   0  0  0  0  0  0  0  0  0  0  0  0
   -0.3343  -53.6436  -23.1103 C   0  0  0  0  0  0  0  0  0  0  0  0
   -0.7468  -54.5701  -22.1782 C   0  0  0  0  0  0  0  0  0  0  0  0
   -0.7373  -54.2313  -20.8794 N   0  0  0  0  0  0  0  0  0  0  0  0
   -0.3291  -52.9962  -20.4759 C   0  0  0  0  0  0  0  0  0  0  0  0
   -0.3315  -52.6899  -19.1235 C   0  0  0  0  0  0  0  0  0  0  0  0
    0.0780  -51.4523  -18.6888 C   0  0  0  0  0  0  0  0  0  0  0  0
    1.9291  -48.5467  -19.7386 C   0  0  0  0  0  0  0  0  0  0  0  0
    0.9018  -49.2727  -19.1033 O   0  0  0  0  0  0  0  0  0  0  0  0
    0.0718  -51.1398  -17.3687 O   0  0  0  0  0  0  0  0  0  0  0  0
    1.1700  -51.1725  -16.5316 C   0  0  0  0  0  0  0  0  0  0  0  0
    1.0022  -50.2707  -15.3166 C   0  0  0  0  0  0  0  0  0  0  0  0
    1.6540  -48.9172  -15.6299 C   0  0  0  0  0  0  0  0  0  0  0  0
    2.5870  -48.6173  -14.5728 N   0  0  0  0  0  0  0  0  0  0  0  0
    3.8597  -48.1270  -15.1515 C   0  0  0  0  0  0  0  0  0  0  0  0
    4.6976  -47.7269  -13.9336 C   0  0  0  0  0  0  0  0  0  0  0  0
    4.2084  -48.2832  -12.7517 O   0  0  0  0  0  0  0  0  0  0  0  0
    2.9515  -47.7512  -12.4020 C   0  0  0  0  0  0  0  0  0  0  0  0
    2.1266  -47.5546  -13.6808 C   0  0  0  0  0  0  0  0  0  0  0  0
 37 38  1  0  0  0
 38 27  1  0  0  0
 27 28  2  0  0  0
 28 29  1  0  0  0
 29 30  2  0  0  0
 30 26  1  0  0  0
 26  1  1  0  0  0
  1  2  2  0  0  0
  2  3  1  0  0  0
  3  4  2  0  0  0
  4  8  1  0  0  0
  8  9  1  0  0  0
  9 10  2  0  0  0
  9 12  1  0  0  0
 12 13  1  0  0  0
 13 14  1  0  0  0
 12 15  1  0  0  0
 15 16  2  0  0  0
 15 17  1  0  0  0
 17 19  1  0  0  0
 19 20  2  0  0  0
 20 21  1  0  0  0
 21 22  1  0  0  0
 22 23  1  0  0  0
 22 24  1  0  0  0
 24 25  2  0  0  0
  4  5  1  0  0  0
  5  6  2  0  0  0
  6  7  1  0  0  0
 30 31  1  0  0  0
 31 32  2  0  0  0
 32 33  1  0  0  0
 33 34  2  0  0  0
 34 35  1  0  0  0
 35 36  2  0  0  0
 36 39  1  0  0  0
 39 40  1  0  0  0
 40 41  1  0  0  0
 41 42  1  0  0  0
 42 43  1  0  0  0
 43 44  1  0  0  0
 44 45  1  0  0  0
 45 46  1  0  0  0
 46 47  1  0  0  0
 47 48  1  0  0  0
 36 27  1  0  0  0
 48 43  1  0  0  0
 34 29  1  0  0  0
  6  1  1  0  0  0
 14 12  1  0  0  0
 25 19  1  0  0  0
  8 11  1  0  0  0
 17 18  1  0  0  0
M  END
> <minimizedAffinity>
-6.99169

> <CNNscore>
0.2432143688

> <CNNaffinity>
6.6686716080

> <CNN_VS>
1.6219167709

> <CNNaffinity_variance>
0.0320719704

$$$$
[H]C1=C([H])C([H])(F)C([H])([H])C([H])=C1N([H])C(=O)C1(C(=O)N([H])c2c([H])c([H])c(Oc3c([H])c([H])nc4c([H])c(OC([H])([H])C([H])([H])C([H])([H])N5C([H])([H])C([H])([H])OC([H])([H])C5([H])[H])c(OC([H])([H])[H])c([H])c34)c(F)c2[H])C([H])([H])C1([H])[H]


 48 53  0  0  0  0  0  0  0  0999 V2000
    0.5692  -51.4677  -24.5913 C   0  0  0  0  0  0  0  0  0  0  0  0
    1.6695  -50.8123  -24.0565 C   0  0  0  0  0  0  0  0  0  0  0  0
    2.7528  -50.4049  -24.7768 C   0  0  0  0  0  0  0  0  0  0  0  0
    2.7837  -50.6527  -26.1539 C   0  0  0  0  0  0  0  0  0  0  0  0
    1.7179  -51.2959  -26.7221 C   0  0  0  0  0  0  0  0  0  0  0  0
    0.6148  -51.7038  -25.9543 C   0  0  0  0  0  0  0  0  0  0  0  0
   -0.4120  -52.3105  -26.5938 F   0  0  0  0  0  0  0  0  0  0  0  0
    3.9139  -50.1789  -26.9101 N   0  0  0  0  0  0  0  0  0  0  0  0
    4.1079  -48.8511  -27.2150 C   0  0  0  0  0  0  0  0  0  0  0  0
    3.1845  -48.0345  -26.8097 O   0  0  0  0  0  0  0  0  0  0  0  0
    4.5484  -50.9297  -27.2224 H   0  0  0  0  0  0  0  0  0  0  0  0
    5.2031  -48.1657  -27.9428 C   0  0  0  0  0  0  0  0  0  0  0  0
    6.5663  -48.2793  -27.2817 C   0  0  0  0  0  0  0  0  0  0  0  0
    5.8653  -47.0133  -27.0888 C   0  0  0  0  0  0  0  0  0  0  0  0
    5.1845  -47.8699  -29.3757 C   0  0  0  0  0  0  0  0  0  0  0  0
    3.9715  -47.7231  -29.8608 O   0  0  0  0  0  0  0  0  0  0  0  0
    6.1800  -47.7059  -30.3312 N   0  0  0  0  0  0  0  0  0  0  0  0
    7.1927  -47.7580  -30.1333 H   0  0  0  0  0  0  0  0  0  0  0  0
    5.8398  -47.4062  -31.7224 C   0  0  0  0  0  0  0  0  0  0  0  0
    5.8022  -48.4147  -32.5633 C   0  0  0  0  0  0  0  0  0  0  0  0
    5.4842  -48.3337  -33.9858 C   0  0  0  0  0  0  0  0  0  0  0  0
    5.2299  -46.9717  -34.5027 C   0  0  0  0  0  0  0  0  0  0  0  0
    3.9344  -46.9126  -35.0774 F   0  0  0  0  0  0  0  0  0  0  0  0
    5.2952  -45.9205  -33.4857 C   0  0  0  0  0  0  0  0  0  0  0  0
    5.5717  -46.0915  -32.2089 C   0  0  0  0  0  0  0  0  0  0  0  0
   -0.4975  -51.8509  -23.8082 O   0  0  0  0  0  0  0  0  0  0  0  0
    0.5786  -50.2049  -20.2164 C   0  0  0  0  0  0  0  0  0  0  0  0
    0.2205  -50.7384  -21.4238 C   0  0  0  0  0  0  0  0  0  0  0  0
    0.0218  -52.0991  -21.5176 C   0  0  0  0  0  0  0  0  0  0  0  0
   -0.3458  -52.6953  -22.7432 C   0  0  0  0  0  0  0  0  0  0  0  0
   -0.5342  -54.0554  -22.8164 C   0  0  0  0  0  0  0  0  0  0  0  0
   -0.3718  -54.8552  -21.7067 C   0  0  0  0  0  0  0  0  0  0  0  0
   -0.0232  -54.2853  -20.5424 N   0  0  0  0  0  0  0  0  0  0  0  0
    0.1700  -52.9406  -20.4455 C   0  0  0  0  0  0  0  0  0  0  0  0
    0.5333  -52.3944  -19.2239 C   0  0  0  0  0  0  0  0  0  0  0  0
    0.7372  -51.0412  -19.0989 C   0  0  0  0  0  0  0  0  0  0  0  0
    1.9911  -48.2666  -20.4851 C   0  0  0  0  0  0  0  0  0  0  0  0
    0.8036  -48.8576  -20.0091 O   0  0  0  0  0  0  0  0  0  0  0  0
    1.0851  -50.4958  -17.9065 O   0  0  0  0  0  0  0  0  0  0  0  0
    0.2043  -50.0227  -16.9534 C   0  0  0  0  0  0  0  0  0  0  0  0
    0.3629  -50.7284  -15.6139 C   0  0  0  0  0  0  0  0  0  0  0  0
   -0.5603  -51.9542  -15.6050 C   0  0  0  0  0  0  0  0  0  0  0  0
   -1.9215  -51.4856  -15.5299 N   0  0  0  0  0  0  0  0  0  0  0  0
   -2.7896  -52.3277  -16.3856 C   0  0  0  0  0  0  0  0  0  0  0  0
   -4.2046  -51.8099  -16.1113 C   0  0  0  0  0  0  0  0  0  0  0  0
   -4.1979  -50.5504  -15.5121 O   0  0  0  0  0  0  0  0  0  0  0  0
   -3.6676  -50.5926  -14.2074 C   0  0  0  0  0  0  0  0  0  0  0  0
   -2.4896  -51.5755  -14.1859 C   0  0  0  0  0  0  0  0  0  0  0  0
 37 38  1  0  0  0
 38 27  1  0  0  0
 27 28  2  0  0  0
 28 29  1  0  0  0
 29 30  2  0  0  0
 30 26  1  0  0  0
 26  1  1  0  0  0
  1  2  2  0  0  0
  2  3  1  0  0  0
  3  4  2  0  0  0
  4  8  1  0  0  0
  8  9  1  0  0  0
  9 10  2  0  0  0
  9 12  1  0  0  0
 12 13  1  0  0  0
 13 14  1  0  0  0
 12 15  1  0  0  0
 15 16  2  0  0  0
 15 17  1  0  0  0
 17 19  1  0  0  0
 19 20  2  0  0  0
 20 21  1  0  0  0
 21 22  1  0  0  0
 22 23  1  0  0  0
 22 24  1  0  0  0
 24 25  2  0  0  0
  4  5  1  0  0  0
  5  6  2  0  0  0
  6  7  1  0  0  0
 30 31  1  0  0  0
 31 32  2  0  0  0
 32 33  1  0  0  0
 33 34  2  0  0  0
 34 35  1  0  0  0
 35 36  2  0  0  0
 36 39  1  0  0  0
 39 40  1  0  0  0
 40 41  1  0  0  0
 41 42  1  0  0  0
 42 43  1  0  0  0
 43 44  1  0  0  0
 44 45  1  0  0  0
 45 46  1  0  0  0
 46 47  1  0  0  0
 47 48  1  0  0  0
 36 27  1  0  0  0
 48 43  1  0  0  0
 34 29  1  0  0  0
  6  1  1  0  0  0
 14 12  1  0  0  0
 25 19  1  0  0  0
  8 11  1  0  0  0
 17 18  1  0  0  0
M  END
> <minimizedAffinity>
-7.73161

> <CNNscore>
0.1551589221

> <CNNaffinity>
6.6799340248

> <CNN_VS>
1.0364513397

> <CNNaffinity_variance>
0.1856646538

$$$$
[H]C1=C([H])C([H])(F)C([H])([H])C([H])=C1N([H])C(=O)C1(C(=O)N([H])c2c([H])c([H])c(Oc3c([H])c([H])nc4c([H])c(OC([H])([H])C([H])([H])C([H])([H])N5C([H])([H])C([H])([H])OC([H])([H])C5([H])[H])c(OC([H])([H])[H])c([H])c34)c(F)c2[H])C([H])([H])C1([H])[H]


 48 53  0  0  0  0  0  0  0  0999 V2000
    1.8762  -51.2476  -23.8713 C   0  0  0  0  0  0  0  0  0  0  0  0
    2.5338  -50.1032  -23.4423 C   0  0  0  0  0  0  0  0  0  0  0  0
    3.8446  -49.8244  -23.6924 C   0  0  0  0  0  0  0  0  0  0  0  0
    4.6036  -50.7394  -24.4309 C   0  0  0  0  0  0  0  0  0  0  0  0
    3.9934  -51.8811  -24.8743 C   0  0  0  0  0  0  0  0  0  0  0  0
    2.6405  -52.1414  -24.6013 C   0  0  0  0  0  0  0  0  0  0  0  0
    2.1023  -53.2799  -25.0970 F   0  0  0  0  0  0  0  0  0  0  0  0
    5.9749  -50.4125  -24.7248 N   0  0  0  0  0  0  0  0  0  0  0  0
    6.3366  -49.3815  -25.5615 C   0  0  0  0  0  0  0  0  0  0  0  0
    5.3602  -48.7275  -26.1118 O   0  0  0  0  0  0  0  0  0  0  0  0
    6.6573  -51.0385  -24.2707 H   0  0  0  0  0  0  0  0  0  0  0  0
    7.6696  -48.8705  -25.9625 C   0  0  0  0  0  0  0  0  0  0  0  0
    8.7923  -49.2146  -24.9983 C   0  0  0  0  0  0  0  0  0  0  0  0
    8.2674  -47.8551  -24.9101 C   0  0  0  0  0  0  0  0  0  0  0  0
    8.0526  -48.5516  -27.3383 C   0  0  0  0  0  0  0  0  0  0  0  0
    7.7269  -47.3301  -27.6989 O   0  0  0  0  0  0  0  0  0  0  0  0
    8.6936  -49.2668  -28.3426 N   0  0  0  0  0  0  0  0  0  0  0  0
    9.0471  -50.2318  -28.2369 H   0  0  0  0  0  0  0  0  0  0  0  0
    8.9439  -48.6598  -29.6502 C   0  0  0  0  0  0  0  0  0  0  0  0
   10.1516  -48.1950  -29.8766 C   0  0  0  0  0  0  0  0  0  0  0  0
   10.6082  -47.5574  -31.1079 C   0  0  0  0  0  0  0  0  0  0  0  0
    9.5798  -47.3965  -32.1584 C   0  0  0  0  0  0  0  0  0  0  0  0
   10.0008  -48.0517  -33.3439 F   0  0  0  0  0  0  0  0  0  0  0  0
    8.2697  -47.9478  -31.8070 C   0  0  0  0  0  0  0  0  0  0  0  0
    7.9523  -48.5299  -30.6685 C   0  0  0  0  0  0  0  0  0  0  0  0
    0.5465  -51.4690  -23.5877 O   0  0  0  0  0  0  0  0  0  0  0  0
    0.6980  -50.2863  -19.6701 C   0  0  0  0  0  0  0  0  0  0  0  0
    0.6546  -50.6655  -20.9835 C   0  0  0  0  0  0  0  0  0  0  0  0
    0.2098  -51.9320  -21.2963 C   0  0  0  0  0  0  0  0  0  0  0  0
    0.1503  -52.3690  -22.6372 C   0  0  0  0  0  0  0  0  0  0  0  0
   -0.2919  -53.6383  -22.9273 C   0  0  0  0  0  0  0  0  0  0  0  0
   -0.6834  -54.4996  -21.9261 C   0  0  0  0  0  0  0  0  0  0  0  0
   -0.6267  -54.0809  -20.6520 N   0  0  0  0  0  0  0  0  0  0  0  0
   -0.1914  -52.8287  -20.3400 C   0  0  0  0  0  0  0  0  0  0  0  0
   -0.1451  -52.4390  -19.0101 C   0  0  0  0  0  0  0  0  0  0  0  0
    0.2925  -51.1823  -18.6672 C   0  0  0  0  0  0  0  0  0  0  0  0
    2.1931  -48.4069  -19.9092 C   0  0  0  0  0  0  0  0  0  0  0  0
    1.1265  -49.0439  -19.2438 O   0  0  0  0  0  0  0  0  0  0  0  0
    0.3340  -50.7884  -17.3697 O   0  0  0  0  0  0  0  0  0  0  0  0
    1.4349  -50.8745  -16.5401 C   0  0  0  0  0  0  0  0  0  0  0  0
    1.4084  -49.8346  -15.4286 C   0  0  0  0  0  0  0  0  0  0  0  0
    1.6978  -50.5452  -14.0996 C   0  0  0  0  0  0  0  0  0  0  0  0
    0.4609  -51.1058  -13.6161 N   0  0  0  0  0  0  0  0  0  0  0  0
    0.7429  -52.2944  -12.7778 C   0  0  0  0  0  0  0  0  0  0  0  0
   -0.6279  -52.7033  -12.2310 C   0  0  0  0  0  0  0  0  0  0  0  0
   -1.6753  -52.1339  -12.9552 O   0  0  0  0  0  0  0  0  0  0  0  0
   -1.7257  -50.7351  -12.7936 C   0  0  0  0  0  0  0  0  0  0  0  0
   -0.2915  -50.1911  -12.7593 C   0  0  0  0  0  0  0  0  0  0  0  0
 37 38  1  0  0  0
 38 27  1  0  0  0
 27 28  2  0  0  0
 28 29  1  0  0  0
 29 30  2  0  0  0
 30 26  1  0  0  0
 26  1  1  0  0  0
  1  2  2  0  0  0
  2  3  1  0  0  0
  3  4  2  0  0  0
  4  8  1  0  0  0
  8  9  1  0  0  0
  9 10  2  0  0  0
  9 12  1  0  0  0
 12 13  1  0  0  0
 13 14  1  0  0  0
 12 15  1  0  0  0
 15 16  2  0  0  0
 15 17  1  0  0  0
 17 19  1  0  0  0
 19 20  2  0  0  0
 20 21  1  0  0  0
 21 22  1  0  0  0
 22 23  1  0  0  0
 22 24  1  0  0  0
 24 25  2  0  0  0
  4  5  1  0  0  0
  5  6  2  0  0  0
  6  7  1  0  0  0
 30 31  1  0  0  0
 31 32  2  0  0  0
 32 33  1  0  0  0
 33 34  2  0  0  0
 34 35  1  0  0  0
 35 36  2  0  0  0
 36 39  1  0  0  0
 39 40  1  0  0  0
 40 41  1  0  0  0
 41 42  1  0  0  0
 42 43  1  0  0  0
 43 44  1  0  0  0
 44 45  1  0  0  0
 45 46  1  0  0  0
 46 47  1  0  0  0
 47 48  1  0  0  0
 36 27  1  0  0  0
 48 43  1  0  0  0
 34 29  1  0  0  0
  6  1  1  0  0  0
 14 12  1  0  0  0
 25 19  1  0  0  0
  8 11  1  0  0  0
 17 18  1  0  0  0
M  END
> <minimizedAffinity>
-7.45894

> <CNNscore>
0.1485007256

> <CNNaffinity>
6.5261321068

> <CNN_VS>
0.9691353440

> <CNNaffinity_variance>
0.0553249419

$$$$
[H]C1=C([H])C([H])(F)C([H])([H])C([H])=C1N([H])C(=O)C1(C(=O)N([H])c2c([H])c([H])c(Oc3c([H])c([H])nc4c([H])c(OC([H])([H])C([H])([H])C([H])([H])N5C([H])([H])C([H])([H])OC([H])([H])C5([H])[H])c(OC([H])([H])[H])c([H])c34)c(F)c2[H])C([H])([H])C1([H])[H]


 48 53  0  0  0  0  0  0  0  0999 V2000
    1.6464  -51.3782  -24.5242 C   0  0  0  0  0  0  0  0  0  0  0  0
    1.9677  -50.0284  -24.5566 C   0  0  0  0  0  0  0  0  0  0  0  0
    3.2142  -49.5356  -24.8049 C   0  0  0  0  0  0  0  0  0  0  0  0
    4.2619  -50.4314  -25.0469 C   0  0  0  0  0  0  0  0  0  0  0  0
    3.9881  -51.7720  -25.0253 C   0  0  0  0  0  0  0  0  0  0  0  0
    2.6932  -52.2507  -24.7668 C   0  0  0  0  0  0  0  0  0  0  0  0
    2.4970  -53.5895  -24.7889 F   0  0  0  0  0  0  0  0  0  0  0  0
    5.5641  -49.8969  -25.3505 N   0  0  0  0  0  0  0  0  0  0  0  0
    5.7760  -48.9479  -26.3242 C   0  0  0  0  0  0  0  0  0  0  0  0
    4.7280  -48.5768  -26.9934 O   0  0  0  0  0  0  0  0  0  0  0  0
    6.3237  -50.3103  -24.7885 H   0  0  0  0  0  0  0  0  0  0  0  0
    7.0128  -48.2572  -26.7626 C   0  0  0  0  0  0  0  0  0  0  0  0
    8.0997  -48.1791  -25.7037 C   0  0  0  0  0  0  0  0  0  0  0  0
    7.3164  -46.9640  -25.9073 C   0  0  0  0  0  0  0  0  0  0  0  0
    7.4362  -48.1264  -28.1571 C   0  0  0  0  0  0  0  0  0  0  0  0
    6.9035  -47.0910  -28.7674 O   0  0  0  0  0  0  0  0  0  0  0  0
    8.2876  -48.8636  -28.9711 N   0  0  0  0  0  0  0  0  0  0  0  0
    8.8171  -49.6945  -28.6604 H   0  0  0  0  0  0  0  0  0  0  0  0
    8.5182  -48.4719  -30.3619 C   0  0  0  0  0  0  0  0  0  0  0  0
    9.5554  -47.7038  -30.6067 C   0  0  0  0  0  0  0  0  0  0  0  0
    9.9624  -47.2041  -31.9166 C   0  0  0  0  0  0  0  0  0  0  0  0
    9.0789  -47.5796  -33.0416 C   0  0  0  0  0  0  0  0  0  0  0  0
    9.8250  -48.2842  -34.0208 F   0  0  0  0  0  0  0  0  0  0  0  0
    7.9537  -48.4364  -32.6626 C   0  0  0  0  0  0  0  0  0  0  0  0
    7.6744  -48.8584  -31.4462 C   0  0  0  0  0  0  0  0  0  0  0  0
    0.3639  -51.8122  -24.2703 O   0  0  0  0  0  0  0  0  0  0  0  0
    0.6269  -50.2182  -20.5074 C   0  0  0  0  0  0  0  0  0  0  0  0
    0.5450  -50.7351  -21.7711 C   0  0  0  0  0  0  0  0  0  0  0  0
    0.1691  -52.0517  -21.9287 C   0  0  0  0  0  0  0  0  0  0  0  0
    0.0735  -52.6297  -23.2130 C   0  0  0  0  0  0  0  0  0  0  0  0
   -0.2985  -53.9466  -23.3479 C   0  0  0  0  0  0  0  0  0  0  0  0
   -0.5844  -54.7199  -22.2444 C   0  0  0  0  0  0  0  0  0  0  0  0
   -0.4936  -54.1673  -21.0245 N   0  0  0  0  0  0  0  0  0  0  0  0
   -0.1263  -52.8655  -20.8657 C   0  0  0  0  0  0  0  0  0  0  0  0
   -0.0414  -52.3364  -19.5868 C   0  0  0  0  0  0  0  0  0  0  0  0
    0.3295  -51.0268  -19.3979 C   0  0  0  0  0  0  0  0  0  0  0  0
    1.4556  -48.0858  -21.2756 C   0  0  0  0  0  0  0  0  0  0  0  0
    0.9936  -48.9146  -20.2337 O   0  0  0  0  0  0  0  0  0  0  0  0
    0.4077  -50.4972  -18.1514 O   0  0  0  0  0  0  0  0  0  0  0  0
    1.5542  -50.4147  -17.3855 C   0  0  0  0  0  0  0  0  0  0  0  0
    2.7769  -50.9628  -18.1079 C   0  0  0  0  0  0  0  0  0  0  0  0
    3.8941  -49.9142  -18.0238 C   0  0  0  0  0  0  0  0  0  0  0  0
    4.3173  -49.6060  -19.3669 N   0  0  0  0  0  0  0  0  0  0  0  0
    5.6520  -48.9636  -19.3372 C   0  0  0  0  0  0  0  0  0  0  0  0
    6.0309  -48.8144  -20.8135 C   0  0  0  0  0  0  0  0  0  0  0  0
    4.9265  -48.9389  -21.6562 O   0  0  0  0  0  0  0  0  0  0  0  0
    4.4005  -50.2460  -21.6426 C   0  0  0  0  0  0  0  0  0  0  0  0
    4.4708  -50.7905  -20.2098 C   0  0  0  0  0  0  0  0  0  0  0  0
 37 38  1  0  0  0
 38 27  1  0  0  0
 27 28  2  0  0  0
 28 29  1  0  0  0
 29 30  2  0  0  0
 30 26  1  0  0  0
 26  1  1  0  0  0
  1  2  2  0  0  0
  2  3  1  0  0  0
  3  4  2  0  0  0
  4  8  1  0  0  0
  8  9  1  0  0  0
  9 10  2  0  0  0
  9 12  1  0  0  0
 12 13  1  0  0  0
 13 14  1  0  0  0
 12 15  1  0  0  0
 15 16  2  0  0  0
 15 17  1  0  0  0
 17 19  1  0  0  0
 19 20  2  0  0  0
 20 21  1  0  0  0
 21 22  1  0  0  0
 22 23  1  0  0  0
 22 24  1  0  0  0
 24 25  2  0  0  0
  4  5  1  0  0  0
  5  6  2  0  0  0
  6  7  1  0  0  0
 30 31  1  0  0  0
 31 32  2  0  0  0
 32 33  1  0  0  0
 33 34  2  0  0  0
 34 35  1  0  0  0
 35 36  2  0  0  0
 36 39  1  0  0  0
 39 40  1  0  0  0
 40 41  1  0  0  0
 41 42  1  0  0  0
 42 43  1  0  0  0
 43 44  1  0  0  0
 44 45  1  0  0  0
 45 46  1  0  0  0
 46 47  1  0  0  0
 47 48  1  0  0  0
 36 27  1  0  0  0
 48 43  1  0  0  0
 34 29  1  0  0  0
  6  1  1  0  0  0
 14 12  1  0  0  0
 25 19  1  0  0  0
  8 11  1  0  0  0
 17 18  1  0  0  0
M  END
> <minimizedAffinity>
-7.27879

> <CNNscore>
0.1307337433

> <CNNaffinity>
6.6019248962

> <CNN_VS>
0.8630943298

> <CNNaffinity_variance>
0.2491092235

$$$$
[H]C#C[C@]1(O[H])C([H])([H])C([H])([H])C2([H])C3([H])C([H])([H])C([H])([H])C4=C([H])C(=O)C([H])([H])C([H])([H])[C@]4(C([H])=C([H])[H])C3([H])C([H])([H])C([H])([H])[C@@]21C([H])([H])[H]


 25 28  0  0  0  0  0  0  0  0999 V2000
    1.4314  -51.4098  -26.8102 C   0  0  0  0  0  0  0  0  0  0  0  0
    0.6643  -52.6613  -26.4409 C   0  0  0  0  0  0  0  0  0  0  0  0
   -0.7400  -52.3793  -26.0506 C   0  0  0  0  0  0  0  0  0  0  0  0
   -1.0611  -52.4706  -24.6092 C   0  0  0  0  0  0  0  0  0  0  0  0
    0.1349  -52.3092  -23.7169 C   0  0  0  0  0  0  0  0  0  0  0  0
    1.2946  -53.1912  -24.0594 C   0  0  0  0  0  0  0  0  0  0  0  0
    2.5473  -52.4950  -23.5577 C   0  0  0  0  0  0  0  0  0  0  0  0
    2.2778  -51.6987  -22.3025 C   0  0  0  0  0  0  0  0  0  0  0  0
    1.1183  -52.2330  -21.5450 C   0  0  0  0  0  0  0  0  0  0  0  0
    1.1970  -52.6077  -20.2848 C   0  0  0  0  0  0  0  0  0  0  0  0
    0.0441  -53.1320  -19.5549 C   0  0  0  0  0  0  0  0  0  0  0  0
    0.1136  -53.1428  -18.3027 O   0  0  0  0  0  0  0  0  0  0  0  0
   -1.1116  -53.6082  -20.3251 C   0  0  0  0  0  0  0  0  0  0  0  0
   -0.8137  -53.6272  -21.7991 C   0  0  0  0  0  0  0  0  0  0  0  0
   -0.1918  -52.3455  -22.2546 C   0  0  0  0  0  0  0  0  0  0  0  0
    1.3982  -53.5566  -25.5095 C   0  0  0  0  0  0  0  0  0  0  0  0
    0.7783  -54.9102  -25.7896 C   0  0  0  0  0  0  0  0  0  0  0  0
    0.1791  -54.8588  -27.1673 C   0  0  0  0  0  0  0  0  0  0  0  0
    0.6546  -53.5202  -27.7183 C   0  0  0  0  0  0  0  0  0  0  0  0
    1.9506  -53.7335  -28.1822 O   0  0  0  0  0  0  0  0  0  0  0  0
    2.4162  -52.8947  -28.4121 H   0  0  0  0  0  0  0  0  0  0  0  0
   -1.0047  -51.1524  -21.8841 C   0  0  0  0  0  0  0  0  0  0  0  0
   -2.3015  -51.1717  -21.7080 C   0  0  0  0  0  0  0  0  0  0  0  0
   -0.2372  -52.9793  -28.7097 C   0  0  0  0  0  0  0  0  0  0  0  0
   -0.9622  -52.5243  -29.5458 C   0  0  0  0  0  0  0  0  0  0  0  0
  2  1  1  0  0  0
  2  3  1  0  0  0
  3  4  1  0  0  0
  4  5  1  0  0  0
  5  6  1  0  0  0
  6  7  1  0  0  0
  7  8  1  0  0  0
  8  9  1  0  0  0
  9 10  2  0  0  0
 10 11  1  0  0  0
 11 12  2  0  0  0
 11 13  1  0  0  0
 13 14  1  0  0  0
 14 15  1  0  0  0
 15 22  1  0  0  0
 22 23  2  0  0  0
  6 16  1  0  0  0
 16 17  1  0  0  0
 17 18  1  0  0  0
 18 19  1  0  0  0
 19 20  1  0  0  0
 19 24  1  0  0  0
 24 25  3  0  0  0
 16  2  1  0  0  0
 19  2  1  0  0  0
 15  5  1  0  0  0
 15  9  1  0  0  0
 20 21  1  0  0  0
M  END
> <minimizedAffinity>
-5.88485

> <CNNscore>
0.3745079339

> <CNNaffinity>
6.4311828613

> <CNN_VS>
2.4085290432

> <CNNaffinity_variance>
0.1903333366

$$$$
[H]C#C[C@]1(O[H])C([H])([H])C([H])([H])C2([H])C3([H])C([H])([H])C([H])([H])C4=C([H])C(=O)C([H])([H])C([H])([H])[C@]4(C([H])=C([H])[H])C3([H])C([H])([H])C([H])([H])[C@@]21C([H])([H])[H]


 25 28  0  0  0  0  0  0  0  0999 V2000
   -1.7239  -51.6554  -21.3527 C   0  0  0  0  0  0  0  0  0  0  0  0
   -0.5026  -52.3848  -20.8357 C   0  0  0  0  0  0  0  0  0  0  0  0
    0.3195  -51.5518  -19.9224 C   0  0  0  0  0  0  0  0  0  0  0  0
    1.5927  -51.0282  -20.4644 C   0  0  0  0  0  0  0  0  0  0  0  0
    1.6226  -50.9577  -21.9633 C   0  0  0  0  0  0  0  0  0  0  0  0
    1.2312  -52.2248  -22.6572 C   0  0  0  0  0  0  0  0  0  0  0  0
    0.6925  -51.8370  -24.0228 C   0  0  0  0  0  0  0  0  0  0  0  0
    1.3881  -50.6123  -24.5693 C   0  0  0  0  0  0  0  0  0  0  0  0
    2.7505  -50.4492  -24.0027 C   0  0  0  0  0  0  0  0  0  0  0  0
    3.8320  -50.3662  -24.7499 C   0  0  0  0  0  0  0  0  0  0  0  0
    5.1659  -50.2060  -24.1740 C   0  0  0  0  0  0  0  0  0  0  0  0
    6.0760  -49.8022  -24.9366 O   0  0  0  0  0  0  0  0  0  0  0  0
    5.3553  -50.5244  -22.7533 C   0  0  0  0  0  0  0  0  0  0  0  0
    4.1200  -51.1491  -22.1655 C   0  0  0  0  0  0  0  0  0  0  0  0
    2.8884  -50.3766  -22.5167 C   0  0  0  0  0  0  0  0  0  0  0  0
    0.2669  -53.0845  -21.8969 C   0  0  0  0  0  0  0  0  0  0  0  0
    0.9802  -54.1769  -21.1270 C   0  0  0  0  0  0  0  0  0  0  0  0
    0.2066  -54.4194  -19.8611 C   0  0  0  0  0  0  0  0  0  0  0  0
   -1.0542  -53.5832  -20.0424 C   0  0  0  0  0  0  0  0  0  0  0  0
   -1.9123  -54.3467  -20.8303 O   0  0  0  0  0  0  0  0  0  0  0  0
   -2.6949  -53.8362  -21.1469 H   0  0  0  0  0  0  0  0  0  0  0  0
    2.9923  -48.9363  -22.1473 C   0  0  0  0  0  0  0  0  0  0  0  0
    1.9722  -48.1193  -22.0781 C   0  0  0  0  0  0  0  0  0  0  0  0
   -1.6290  -53.1663  -18.7908 C   0  0  0  0  0  0  0  0  0  0  0  0
   -2.0950  -52.8336  -17.7401 C   0  0  0  0  0  0  0  0  0  0  0  0
  2  1  1  0  0  0
  2  3  1  0  0  0
  3  4  1  0  0  0
  4  5  1  0  0  0
  5  6  1  0  0  0
  6  7  1  0  0  0
  7  8  1  0  0  0
  8  9  1  0  0  0
  9 10  2  0  0  0
 10 11  1  0  0  0
 11 12  2  0  0  0
 11 13  1  0  0  0
 13 14  1  0  0  0
 14 15  1  0  0  0
 15 22  1  0  0  0
 22 23  2  0  0  0
  6 16  1  0  0  0
 16 17  1  0  0  0
 17 18  1  0  0  0
 18 19  1  0  0  0
 19 20  1  0  0  0
 19 24  1  0  0  0
 24 25  3  0  0  0
 16  2  1  0  0  0
 19  2  1  0  0  0
 15  5  1  0  0  0
 15  9  1  0  0  0
 20 21  1  0  0  0
M  END
> <minimizedAffinity>
-5.14929

> <CNNscore>
0.3634975851

> <CNNaffinity>
5.8887109756

> <CNN_VS>
2.1405322552

> <CNNaffinity_variance>
0.2934830189

$$$$
[H]C#C[C@]1(O[H])C([H])([H])C([H])([H])C2([H])C3([H])C([H])([H])C([H])([H])C4=C([H])C(=O)C([H])([H])C([H])([H])[C@]4(C([H])=C([H])[H])C3([H])C([H])([H])C([H])([H])[C@@]21C([H])([H])[H]


 25 28  0  0  0  0  0  0  0  0999 V2000
   -1.5922  -52.3619  -20.1468 C   0  0  0  0  0  0  0  0  0  0  0  0
   -0.1177  -52.2187  -20.4571 C   0  0  0  0  0  0  0  0  0  0  0  0
    0.1876  -50.9955  -21.2411 C   0  0  0  0  0  0  0  0  0  0  0  0
    0.5104  -51.1859  -22.6724 C   0  0  0  0  0  0  0  0  0  0  0  0
   -0.0204  -52.4692  -23.2414 C   0  0  0  0  0  0  0  0  0  0  0  0
    0.3239  -53.6934  -22.4520 C   0  0  0  0  0  0  0  0  0  0  0  0
   -0.7529  -54.7252  -22.7375 C   0  0  0  0  0  0  0  0  0  0  0  0
   -1.2827  -54.6028  -24.1469 C   0  0  0  0  0  0  0  0  0  0  0  0
   -0.2885  -53.9874  -25.0616 C   0  0  0  0  0  0  0  0  0  0  0  0
    0.1289  -54.5733  -26.1649 C   0  0  0  0  0  0  0  0  0  0  0  0
    1.1090  -53.9518  -27.0537 C   0  0  0  0  0  0  0  0  0  0  0  0
    1.1940  -54.4036  -28.2205 O   0  0  0  0  0  0  0  0  0  0  0  0
    1.9246  -52.8487  -26.5305 C   0  0  0  0  0  0  0  0  0  0  0  0
    1.7096  -52.6652  -25.0533 C   0  0  0  0  0  0  0  0  0  0  0  0
    0.2554  -52.6424  -24.7044 C   0  0  0  0  0  0  0  0  0  0  0  0
    0.5039  -53.4620  -20.9820 C   0  0  0  0  0  0  0  0  0  0  0  0
    1.9641  -53.2839  -20.6198 C   0  0  0  0  0  0  0  0  0  0  0  0
    2.0329  -52.3089  -19.4777 C   0  0  0  0  0  0  0  0  0  0  0  0
    0.5741  -52.1074  -19.0865 C   0  0  0  0  0  0  0  0  0  0  0  0
    0.2408  -53.1883  -18.2736 O   0  0  0  0  0  0  0  0  0  0  0  0
   -0.7276  -53.2466  -18.0948 H   0  0  0  0  0  0  0  0  0  0  0  0
   -0.5052  -51.6295  -25.4900 C   0  0  0  0  0  0  0  0  0  0  0  0
   -1.7205  -51.8097  -25.9410 C   0  0  0  0  0  0  0  0  0  0  0  0
    0.3342  -50.8255  -18.4782 C   0  0  0  0  0  0  0  0  0  0  0  0
    0.1278  -49.7692  -17.9553 C   0  0  0  0  0  0  0  0  0  0  0  0
  2  1  1  0  0  0
  2  3  1  0  0  0
  3  4  1  0  0  0
  4  5  1  0  0  0
  5  6  1  0  0  0
  6  7  1  0  0  0
  7  8  1  0  0  0
  8  9  1  0  0  0
  9 10  2  0  0  0
 10 11  1  0  0  0
 11 12  2  0  0  0
 11 13  1  0  0  0
 13 14  1  0  0  0
 14 15  1  0  0  0
 15 22  1  0  0  0
 22 23  2  0  0  0
  6 16  1  0  0  0
 16 17  1  0  0  0
 17 18  1  0  0  0
 18 19  1  0  0  0
 19 20  1  0  0  0
 19 24  1  0  0  0
 24 25  3  0  0  0
 16  2  1  0  0  0
 19  2  1  0  0  0
 15  5  1  0  0  0
 15  9  1  0  0  0
 20 21  1  0  0  0
M  END
> <minimizedAffinity>
-6.10489

> <CNNscore>
0.3567106724

> <CNNaffinity>
6.3181738853

> <CNN_VS>
2.2537600994

> <CNNaffinity_variance>
0.2945089936

$$$$
[H]C#C[C@]1(O[H])C([H])([H])C([H])([H])C2([H])C3([H])C([H])([H])C([H])([H])C4=C([H])C(=O)C([H])([H])C([H])([H])[C@]4(C([H])=C([H])[H])C3([H])C([H])([H])C([H])([H])[C@@]21C([H])([H])[H]


 25 28  0  0  0  0  0  0  0  0999 V2000
    2.3694  -51.9189  -22.3131 C   0  0  0  0  0  0  0  0  0  0  0  0
    2.8739  -51.2792  -23.5887 C   0  0  0  0  0  0  0  0  0  0  0  0
    1.9934  -50.1847  -24.0691 C   0  0  0  0  0  0  0  0  0  0  0  0
    1.1509  -50.4780  -25.2494 C   0  0  0  0  0  0  0  0  0  0  0  0
    0.9058  -51.9433  -25.4621 C   0  0  0  0  0  0  0  0  0  0  0  0
    2.1400  -52.7900  -25.4671 C   0  0  0  0  0  0  0  0  0  0  0  0
    1.7241  -54.1868  -25.0411 C   0  0  0  0  0  0  0  0  0  0  0  0
    0.3247  -54.5174  -25.5047 C   0  0  0  0  0  0  0  0  0  0  0  0
   -0.0612  -53.7347  -26.7055 C   0  0  0  0  0  0  0  0  0  0  0  0
   -0.4584  -54.2955  -27.8291 C   0  0  0  0  0  0  0  0  0  0  0  0
   -0.8344  -53.5082  -29.0020 C   0  0  0  0  0  0  0  0  0  0  0  0
   -1.5079  -54.0848  -29.8889 O   0  0  0  0  0  0  0  0  0  0  0  0
   -0.4046  -52.1058  -29.0679 C   0  0  0  0  0  0  0  0  0  0  0  0
    0.5331  -51.7697  -27.9411 C   0  0  0  0  0  0  0  0  0  0  0  0
    0.0077  -52.2443  -26.6237 C   0  0  0  0  0  0  0  0  0  0  0  0
    3.2671  -52.2610  -24.6323 C   0  0  0  0  0  0  0  0  0  0  0  0
    4.2615  -51.4806  -25.4673 C   0  0  0  0  0  0  0  0  0  0  0  0
    4.8065  -50.3742  -24.6079 C   0  0  0  0  0  0  0  0  0  0  0  0
    4.2449  -50.6809  -23.2251 C   0  0  0  0  0  0  0  0  0  0  0  0
    5.0800  -51.6519  -22.6773 O   0  0  0  0  0  0  0  0  0  0  0  0
    4.7165  -52.0438  -21.8482 H   0  0  0  0  0  0  0  0  0  0  0  0
   -1.3698  -51.7479  -26.3452 C   0  0  0  0  0  0  0  0  0  0  0  0
   -1.6619  -50.8688  -25.4205 C   0  0  0  0  0  0  0  0  0  0  0  0
    4.1060  -49.5042  -22.4084 C   0  0  0  0  0  0  0  0  0  0  0  0
    3.9702  -48.5252  -21.7341 C   0  0  0  0  0  0  0  0  0  0  0  0
  2  1  1  0  0  0
  2  3  1  0  0  0
  3  4  1  0  0  0
  4  5  1  0  0  0
  5  6  1  0  0  0
  6  7  1  0  0  0
  7  8  1  0  0  0
  8  9  1  0  0  0
  9 10  2  0  0  0
 10 11  1  0  0  0
 11 12  2  0  0  0
 11 13  1  0  0  0
 13 14  1  0  0  0
 14 15  1  0  0  0
 15 22  1  0  0  0
 22 23  2  0  0  0
  6 16  1  0  0  0
 16 17  1  0  0  0
 17 18  1  0  0  0
 18 19  1  0  0  0
 19 20  1  0  0  0
 19 24  1  0  0  0
 24 25  3  0  0  0
 16  2  1  0  0  0
 19  2  1  0  0  0
 15  5  1  0  0  0
 15  9  1  0  0  0
 20 21  1  0  0  0
M  END
> <minimizedAffinity>
-1.82009

> <CNNscore>
0.3457027674

> <CNNaffinity>
5.8248739243

> <CNN_VS>
2.0136749744

> <CNNaffinity_variance>
0.3453488350

$$$$
[H]C#C[C@]1(O[H])C([H])([H])C([H])([H])C2([H])C3([H])C([H])([H])C([H])([H])C4=C([H])C(=O)C([H])([H])C([H])([H])[C@]4(C([H])=C([H])[H])C3([H])C([H])([H])C([H])([H])[C@@]21C([H])([H])[H]


 25 28  0  0  0  0  0  0  0  0999 V2000
    1.1910  -51.1336  -25.5380 C   0  0  0  0  0  0  0  0  0  0  0  0
    0.4773  -52.0477  -24.5653 C   0  0  0  0  0  0  0  0  0  0  0  0
   -0.5582  -51.3423  -23.7691 C   0  0  0  0  0  0  0  0  0  0  0  0
   -0.2339  -51.0650  -22.3524 C   0  0  0  0  0  0  0  0  0  0  0  0
    1.2395  -51.0473  -22.0668 C   0  0  0  0  0  0  0  0  0  0  0  0
    1.9864  -52.2480  -22.5574 C   0  0  0  0  0  0  0  0  0  0  0  0
    3.4232  -51.8150  -22.7894 C   0  0  0  0  0  0  0  0  0  0  0  0
    3.8489  -50.7474  -21.8090 C   0  0  0  0  0  0  0  0  0  0  0  0
    3.0645  -50.8060  -20.5500 C   0  0  0  0  0  0  0  0  0  0  0  0
    3.6222  -50.9355  -19.3638 C   0  0  0  0  0  0  0  0  0  0  0  0
    2.8334  -50.9917  -18.1344 C   0  0  0  0  0  0  0  0  0  0  0  0
    3.4353  -50.7760  -17.0555 O   0  0  0  0  0  0  0  0  0  0  0  0
    1.4004  -51.2939  -18.2382 C   0  0  0  0  0  0  0  0  0  0  0  0
    1.0244  -51.6760  -19.6434 C   0  0  0  0  0  0  0  0  0  0  0  0
    1.5764  -50.7124  -20.6453 C   0  0  0  0  0  0  0  0  0  0  0  0
    1.3949  -52.9030  -23.7691 C   0  0  0  0  0  0  0  0  0  0  0  0
    0.5155  -54.0783  -23.3949 C   0  0  0  0  0  0  0  0  0  0  0  0
   -0.6051  -54.1434  -24.3948 C   0  0  0  0  0  0  0  0  0  0  0  0
   -0.2157  -53.1068  -25.4415 C   0  0  0  0  0  0  0  0  0  0  0  0
    0.7022  -53.7336  -26.2810 O   0  0  0  0  0  0  0  0  0  0  0  0
    1.1451  -53.1050  -26.8989 H   0  0  0  0  0  0  0  0  0  0  0  0
    1.1975  -49.3014  -20.3504 C   0  0  0  0  0  0  0  0  0  0  0  0
    1.4385  -48.2928  -21.1490 C   0  0  0  0  0  0  0  0  0  0  0  0
   -1.3540  -52.5578  -26.1298 C   0  0  0  0  0  0  0  0  0  0  0  0
   -2.2881  -52.0965  -26.7183 C   0  0  0  0  0  0  0  0  0  0  0  0
  2  1  1  0  0  0
  2  3  1  0  0  0
  3  4  1  0  0  0
  4  5  1  0  0  0
  5  6  1  0  0  0
  6  7  1  0  0  0
  7  8  1  0  0  0
  8  9  1  0  0  0
  9 10  2  0  0  0
 10 11  1  0  0  0
 11 12  2  0  0  0
 11 13  1  0  0  0
 13 14  1  0  0  0
 14 15  1  0  0  0
 15 22  1  0  0  0
 22 23  2  0  0  0
  6 16  1  0  0  0
 16 17  1  0  0  0
 17 18  1  0  0  0
 18 19  1  0  0  0
 19 20  1  0  0  0
 19 24  1  0  0  0
 24 25  3  0  0  0
 16  2  1  0  0  0
 19  2  1  0  0  0
 15  5  1  0  0  0
 15  9  1  0  0  0
 20 21  1  0  0  0
M  END
> <minimizedAffinity>
-6.05041

> <CNNscore>
0.3345870972

> <CNNaffinity>
6.1277079582

> <CNN_VS>
2.0502519608

> <CNNaffinity_variance>
0.3784653544

$$$$
[H]C#C[C@]1(O[H])C([H])([H])C([H])([H])C2([H])C3([H])C([H])([H])C([H])([H])C4=C([H])C(=O)C([H])([H])C([H])([H])[C@]4(C([H])=C([H])[H])C3([H])C([H])([H])C([H])([H])[C@@]21C([H])([H])[H]


 25 28  0  0  0  0  0  0  0  0999 V2000
   -1.6471  -51.4462  -21.3262 C   0  0  0  0  0  0  0  0  0  0  0  0
   -0.5015  -52.4348  -21.2883 C   0  0  0  0  0  0  0  0  0  0  0  0
    0.8208  -51.7755  -21.1439 C   0  0  0  0  0  0  0  0  0  0  0  0
    1.6778  -51.7319  -22.3492 C   0  0  0  0  0  0  0  0  0  0  0  0
    0.9135  -51.8678  -23.6337 C   0  0  0  0  0  0  0  0  0  0  0  0
   -0.0181  -53.0381  -23.6866 C   0  0  0  0  0  0  0  0  0  0  0  0
   -1.1198  -52.6865  -24.6707 C   0  0  0  0  0  0  0  0  0  0  0  0
   -0.6092  -51.8077  -25.7884 C   0  0  0  0  0  0  0  0  0  0  0  0
    0.8467  -51.9883  -26.0150 C   0  0  0  0  0  0  0  0  0  0  0  0
    1.3532  -52.3303  -27.1818 C   0  0  0  0  0  0  0  0  0  0  0  0
    2.7901  -52.5039  -27.3862 C   0  0  0  0  0  0  0  0  0  0  0  0
    3.2075  -52.4933  -28.5688 O   0  0  0  0  0  0  0  0  0  0  0  0
    3.6466  -52.6782  -26.2064 C   0  0  0  0  0  0  0  0  0  0  0  0
    2.8263  -52.8229  -24.9542 C   0  0  0  0  0  0  0  0  0  0  0  0
    1.7691  -51.7691  -24.8603 C   0  0  0  0  0  0  0  0  0  0  0  0
   -0.5670  -53.4637  -22.3582 C   0  0  0  0  0  0  0  0  0  0  0  0
    0.2273  -54.6105  -21.7677 C   0  0  0  0  0  0  0  0  0  0  0  0
    0.2220  -54.4446  -20.2737 C   0  0  0  0  0  0  0  0  0  0  0  0
   -0.7564  -53.2999  -20.0409 C   0  0  0  0  0  0  0  0  0  0  0  0
   -2.0282  -53.8664  -20.0818 O   0  0  0  0  0  0  0  0  0  0  0  0
   -2.7462  -53.1903  -20.1053 H   0  0  0  0  0  0  0  0  0  0  0  0
    2.3229  -50.3910  -24.9860 C   0  0  0  0  0  0  0  0  0  0  0  0
    3.3530  -49.9478  -24.3112 C   0  0  0  0  0  0  0  0  0  0  0  0
   -0.4817  -52.5721  -18.8302 C   0  0  0  0  0  0  0  0  0  0  0  0
   -0.2652  -51.9804  -17.8130 C   0  0  0  0  0  0  0  0  0  0  0  0
  2  1  1  0  0  0
  2  3  1  0  0  0
  3  4  1  0  0  0
  4  5  1  0  0  0
  5  6  1  0  0  0
  6  7  1  0  0  0
  7  8  1  0  0  0
  8  9  1  0  0  0
  9 10  2  0  0  0
 10 11  1  0  0  0
 11 12  2  0  0  0
 11 13  1  0  0  0
 13 14  1  0  0  0
 14 15  1  0  0  0
 15 22  1  0  0  0
 22 23  2  0  0  0
  6 16  1  0  0  0
 16 17  1  0  0  0
 17 18  1  0  0  0
 18 19  1  0  0  0
 19 20  1  0  0  0
 19 24  1  0  0  0
 24 25  3  0  0  0
 16  2  1  0  0  0
 19  2  1  0  0  0
 15  5  1  0  0  0
 15  9  1  0  0  0
 20 21  1  0  0  0
M  END
> <minimizedAffinity>
-7.68204

> <CNNscore>
0.3251654804

> <CNNaffinity>
6.1822037697

> <CNN_VS>
2.0102393627

> <CNNaffinity_variance>
0.1591056436

$$$$
[H]C#C[C@]1(O[H])C([H])([H])C([H])([H])C2([H])C3([H])C([H])([H])C([H])([H])C4=C([H])C(=O)C([H])([H])C([H])([H])[C@]4(C([H])=C([H])[H])C3([H])C([H])([H])C([H])([H])[C@@]21C([H])([H])[H]


 25 28  0  0  0  0  0  0  0  0999 V2000
   -0.1383  -50.8698  -20.2119 C   0  0  0  0  0  0  0  0  0  0  0  0
    1.3425  -50.9776  -20.5061 C   0  0  0  0  0  0  0  0  0  0  0  0
    1.8373  -49.8769  -21.3707 C   0  0  0  0  0  0  0  0  0  0  0  0
    2.1357  -50.2196  -22.7787 C   0  0  0  0  0  0  0  0  0  0  0  0
    1.4169  -51.4450  -23.2629 C   0  0  0  0  0  0  0  0  0  0  0  0
    1.5638  -52.6458  -22.3815 C   0  0  0  0  0  0  0  0  0  0  0  0
    0.3427  -53.5187  -22.6105 C   0  0  0  0  0  0  0  0  0  0  0  0
   -0.1534  -53.4211  -24.0341 C   0  0  0  0  0  0  0  0  0  0  0  0
    0.9293  -53.0345  -24.9734 C   0  0  0  0  0  0  0  0  0  0  0  0
    1.2582  -53.7573  -26.0242 C   0  0  0  0  0  0  0  0  0  0  0  0
    2.3277  -53.3608  -26.9382 C   0  0  0  0  0  0  0  0  0  0  0  0
    2.3492  -53.9052  -28.0678 O   0  0  0  0  0  0  0  0  0  0  0  0
    3.3003  -52.3600  -26.4818 C   0  0  0  0  0  0  0  0  0  0  0  0
    3.1072  -52.0371  -25.0256 C   0  0  0  0  0  0  0  0  0  0  0  0
    1.6717  -51.7660  -24.7046 C   0  0  0  0  0  0  0  0  0  0  0  0
    1.7684  -52.3367  -20.9290 C   0  0  0  0  0  0  0  0  0  0  0  0
    3.2363  -52.3582  -20.5553 C   0  0  0  0  0  0  0  0  0  0  0  0
    3.4475  -51.3235  -19.4854 C   0  0  0  0  0  0  0  0  0  0  0  0
    2.0348  -50.8725  -19.1352 C   0  0  0  0  0  0  0  0  0  0  0  0
    1.5340  -51.8265  -18.2524 O   0  0  0  0  0  0  0  0  0  0  0  0
    0.5671  -51.7224  -18.0867 H   0  0  0  0  0  0  0  0  0  0  0  0
    1.0810  -50.7095  -25.5742 C   0  0  0  0  0  0  0  0  0  0  0  0
    1.6376  -49.5467  -25.8002 C   0  0  0  0  0  0  0  0  0  0  0  0
    1.9915  -49.5276  -18.6251 C   0  0  0  0  0  0  0  0  0  0  0  0
    1.9621  -48.4163  -18.1825 C   0  0  0  0  0  0  0  0  0  0  0  0
  2  1  1  0  0  0
  2  3  1  0  0  0
  3  4  1  0  0  0
  4  5  1  0  0  0
  5  6  1  0  0  0
  6  7  1  0  0  0
  7  8  1  0  0  0
  8  9  1  0  0  0
  9 10  2  0  0  0
 10 11  1  0  0  0
 11 12  2  0  0  0
 11 13  1  0  0  0
 13 14  1  0  0  0
 14 15  1  0  0  0
 15 22  1  0  0  0
 22 23  2  0  0  0
  6 16  1  0  0  0
 16 17  1  0  0  0
 17 18  1  0  0  0
 18 19  1  0  0  0
 19 20  1  0  0  0
 19 24  1  0  0  0
 24 25  3  0  0  0
 16  2  1  0  0  0
 19  2  1  0  0  0
 15  5  1  0  0  0
 15  9  1  0  0  0
 20 21  1  0  0  0
M  END
> <minimizedAffinity>
-4.71787

> <CNNscore>
0.3242507279

> <CNNaffinity>
6.1257791519

> <CNN_VS>
1.9862883091

> <CNNaffinity_variance>
0.6349821091

$$$$
[H]C#C[C@]1(O[H])C([H])([H])C([H])([H])C2([H])C3([H])C([H])([H])C([H])([H])C4=C([H])C(=O)C([H])([H])C([H])([H])[C@]4(C([H])=C([H])[H])C3([H])C([H])([H])C([H])([H])[C@@]21C([H])([H])[H]


 25 28  0  0  0  0  0  0  0  0999 V2000
    4.8081  -52.6680  -24.7330 C   0  0  0  0  0  0  0  0  0  0  0  0
    3.8855  -51.4906  -24.5017 C   0  0  0  0  0  0  0  0  0  0  0  0
    2.8422  -51.7705  -23.4833 C   0  0  0  0  0  0  0  0  0  0  0  0
    1.4672  -51.9915  -23.9828 C   0  0  0  0  0  0  0  0  0  0  0  0
    1.4130  -52.4225  -25.4194 C   0  0  0  0  0  0  0  0  0  0  0  0
    2.1876  -51.5559  -26.3624 C   0  0  0  0  0  0  0  0  0  0  0  0
    2.5709  -52.4209  -27.5500 C   0  0  0  0  0  0  0  0  0  0  0  0
    1.5188  -53.4651  -27.8417 C   0  0  0  0  0  0  0  0  0  0  0  0
    0.1771  -53.0500  -27.3608 C   0  0  0  0  0  0  0  0  0  0  0  0
   -0.8758  -52.9778  -28.1489 C   0  0  0  0  0  0  0  0  0  0  0  0
   -2.1896  -52.5666  -27.6574 C   0  0  0  0  0  0  0  0  0  0  0  0
   -3.1827  -52.8456  -28.3706 O   0  0  0  0  0  0  0  0  0  0  0  0
   -2.2640  -51.8597  -26.3726 C   0  0  0  0  0  0  0  0  0  0  0  0
   -0.8924  -51.5228  -25.8559 C   0  0  0  0  0  0  0  0  0  0  0  0
    0.0265  -52.7014  -25.9157 C   0  0  0  0  0  0  0  0  0  0  0  0
    3.3780  -50.8762  -25.7557 C   0  0  0  0  0  0  0  0  0  0  0  0
    3.0534  -49.4602  -25.3262 C   0  0  0  0  0  0  0  0  0  0  0  0
    3.8668  -49.1605  -24.0980 C   0  0  0  0  0  0  0  0  0  0  0  0
    4.7933  -50.3640  -23.9760 C   0  0  0  0  0  0  0  0  0  0  0  0
    5.8489  -50.1275  -24.8535 O   0  0  0  0  0  0  0  0  0  0  0  0
    6.4262  -50.9178  -24.9772 H   0  0  0  0  0  0  0  0  0  0  0  0
   -0.5319  -53.8973  -25.2232 C   0  0  0  0  0  0  0  0  0  0  0  0
   -0.1121  -55.1218  -25.4163 C   0  0  0  0  0  0  0  0  0  0  0  0
    5.2073  -50.6109  -22.6201 C   0  0  0  0  0  0  0  0  0  0  0  0
    5.5626  -50.7984  -21.4930 C   0  0  0  0  0  0  0  0  0  0  0  0
  2  1  1  0  0  0
  2  3  1  0  0  0
  3  4  1  0  0  0
  4  5  1  0  0  0
  5  6  1  0  0  0
  6  7  1  0  0  0
  7  8  1  0  0  0
  8  9  1  0  0  0
  9 10  2  0  0  0
 10 11  1  0  0  0
 11 12  2  0  0  0
 11 13  1  0  0  0
 13 14  1  0  0  0
 14 15  1  0  0  0
 15 22  1  0  0  0
 22 23  2  0  0  0
  6 16  1  0  0  0
 16 17  1  0  0  0
 17 18  1  0  0  0
 18 19  1  0  0  0
 19 20  1  0  0  0
 19 24  1  0  0  0
 24 25  3  0  0  0
 16  2  1  0  0  0
 19  2  1  0  0  0
 15  5  1  0  0  0
 15  9  1  0  0  0
 20 21  1  0  0  0
M  END
> <minimizedAffinity>
-8.35026

> <CNNscore>
0.3129217625

> <CNNaffinity>
6.0087199211

> <CNN_VS>
1.8802592754

> <CNNaffinity_variance>
0.0731886327

$$$$
[H]C#C[C@]1(O[H])C([H])([H])C([H])([H])C2([H])C3([H])C([H])([H])C([H])([H])C4=C([H])C(=O)C([H])([H])C([H])([H])[C@]4(C([H])=C([H])[H])C3([H])C([H])([H])C([H])([H])[C@@]21C([H])([H])[H]


 25 28  0  0  0  0  0  0  0  0999 V2000
    1.0110  -54.3744  -20.3912 C   0  0  0  0  0  0  0  0  0  0  0  0
    0.3460  -53.2243  -21.1166 C   0  0  0  0  0  0  0  0  0  0  0  0
    0.9590  -52.9497  -22.4405 C   0  0  0  0  0  0  0  0  0  0  0  0
    1.8113  -51.7446  -22.5421 C   0  0  0  0  0  0  0  0  0  0  0  0
    2.3574  -51.2833  -21.2225 C   0  0  0  0  0  0  0  0  0  0  0  0
    1.3325  -51.1195  -20.1440 C   0  0  0  0  0  0  0  0  0  0  0  0
    2.0487  -51.3006  -18.8174 C   0  0  0  0  0  0  0  0  0  0  0  0
    3.4728  -50.8003  -18.8798 C   0  0  0  0  0  0  0  0  0  0  0  0
    3.6490  -49.7572  -19.9214 C   0  0  0  0  0  0  0  0  0  0  0  0
    4.1251  -48.5573  -19.6603 C   0  0  0  0  0  0  0  0  0  0  0  0
    4.2915  -47.5425  -20.6993 C   0  0  0  0  0  0  0  0  0  0  0  0
    5.0474  -46.5755  -20.4418 O   0  0  0  0  0  0  0  0  0  0  0  0
    3.5707  -47.7168  -21.9665 C   0  0  0  0  0  0  0  0  0  0  0  0
    2.6148  -48.8757  -21.8948 C   0  0  0  0  0  0  0  0  0  0  0  0
    3.2660  -50.0958  -21.3254 C   0  0  0  0  0  0  0  0  0  0  0  0
    0.1423  -52.0225  -20.2671 C   0  0  0  0  0  0  0  0  0  0  0  0
   -1.0186  -51.3260  -20.9469 C   0  0  0  0  0  0  0  0  0  0  0  0
   -1.7628  -52.3590  -21.7461 C   0  0  0  0  0  0  0  0  0  0  0  0
   -1.1103  -53.6730  -21.3347 C   0  0  0  0  0  0  0  0  0  0  0  0
   -1.7033  -54.0359  -20.1276 O   0  0  0  0  0  0  0  0  0  0  0  0
   -1.2415  -54.7879  -19.6868 H   0  0  0  0  0  0  0  0  0  0  0  0
    4.5132  -50.4696  -22.0511 C   0  0  0  0  0  0  0  0  0  0  0  0
    5.0984  -51.6363  -21.9551 C   0  0  0  0  0  0  0  0  0  0  0  0
   -1.2028  -54.6828  -22.3558 C   0  0  0  0  0  0  0  0  0  0  0  0
   -1.2894  -55.5086  -23.2172 C   0  0  0  0  0  0  0  0  0  0  0  0
  2  1  1  0  0  0
  2  3  1  0  0  0
  3  4  1  0  0  0
  4  5  1  0  0  0
  5  6  1  0  0  0
  6  7  1  0  0  0
  7  8  1  0  0  0
  8  9  1  0  0  0
  9 10  2  0  0  0
 10 11  1  0  0  0
 11 12  2  0  0  0
 11 13  1  0  0  0
 13 14  1  0  0  0
 14 15  1  0  0  0
 15 22  1  0  0  0
 22 23  2  0  0  0
  6 16  1  0  0  0
 16 17  1  0  0  0
 17 18  1  0  0  0
 18 19  1  0  0  0
 19 20  1  0  0  0
 19 24  1  0  0  0
 24 25  3  0  0  0
 16  2  1  0  0  0
 19  2  1  0  0  0
 15  5  1  0  0  0
 15  9  1  0  0  0
 20 21  1  0  0  0
M  END
> <minimizedAffinity>
-5.89484

> <CNNscore>
0.2829880714

> <CNNaffinity>
5.9217367172

> <CNN_VS>
1.6757808924

> <CNNaffinity_variance>
0.3335551322

$$$$
[H]C1=C(C(=O)[O-])N2C(=O)C(=O)[C@@]2([H])S1


 12 13  0  0  0  0  0  0  0  0999 V2000
    0.4805  -51.1187  -21.0495 C   0  0  0  0  0  0  0  0  0  0  0  0
    0.3785  -51.3166  -19.7482 C   0  0  0  0  0  0  0  0  0  0  0  0
   -0.3764  -52.9670  -19.5964 S   0  0  0  0  0  0  0  0  0  0  0  0
   -1.1474  -52.8571  -21.2743 C   0  0  0  0  0  0  0  0  0  0  0  0
    0.0370  -52.1798  -21.8596 N   0  0  0  0  0  0  0  0  0  0  0  0
   -0.0908  -53.1510  -22.9322 C   0  0  0  0  0  0  0  0  0  0  0  0
    0.3839  -53.2295  -24.0933 O   0  0  0  0  0  0  0  0  0  0  0  0
   -0.9774  -53.9923  -22.1435 C   0  0  0  0  0  0  0  0  0  0  0  0
   -1.3700  -55.1543  -22.2315 O   0  0  0  0  0  0  0  0  0  0  0  0
    1.8397  -49.8708  -22.7669 O   0  0  0  0  0  0  0  0  0  0  0  0
    1.0395  -49.8990  -21.6400 C   0  0  0  0  0  0  0  0  0  0  0  0
    0.7796  -48.8036  -21.0930 O   0  0  0  0  0  0  0  0  0  0  0  0
 10 11  1  0  0  0
 11 12  2  0  0  0
 11  1  1  0  0  0
  1  2  2  0  0  0
  2  3  1  0  0  0
  3  4  1  0  0  0
  4  5  1  0  0  0
  5  6  1  0  0  0
  6  7  2  0  0  0
  6  8  1  0  0  0
  8  9  2  0  0  0
  5  1  1  0  0  0
  8  4  1  0  0  0
M  CHG 1  10  -1
M  END
> <minimizedAffinity>
-4.34702

> <CNNscore>
0.5885503292

> <CNNaffinity>
3.6308410168

> <CNN_VS>
2.1369326115

> <CNNaffinity_variance>
0.0108362595

$$$$
[H]C1=C(C(=O)[O-])N2C(=O)C(=O)[C@@]2([H])S1


 12 13  0  0  0  0  0  0  0  0999 V2000
   -0.0745  -52.8720  -23.8724 C   0  0  0  0  0  0  0  0  0  0  0  0
   -0.6245  -54.0434  -24.1342 C   0  0  0  0  0  0  0  0  0  0  0  0
   -1.1269  -54.6846  -22.5054 S   0  0  0  0  0  0  0  0  0  0  0  0
    0.1341  -53.6585  -21.6229 C   0  0  0  0  0  0  0  0  0  0  0  0
   -0.0747  -52.4926  -22.5179 N   0  0  0  0  0  0  0  0  0  0  0  0
   -0.1429  -51.7183  -21.2907 C   0  0  0  0  0  0  0  0  0  0  0  0
   -0.0741  -50.4898  -21.0344 O   0  0  0  0  0  0  0  0  0  0  0  0
   -0.3205  -52.9120  -20.4787 C   0  0  0  0  0  0  0  0  0  0  0  0
   -0.6967  -53.1254  -19.3276 O   0  0  0  0  0  0  0  0  0  0  0  0
    1.8293  -51.7301  -25.0665 O   0  0  0  0  0  0  0  0  0  0  0  0
    0.4816  -51.9917  -24.9042 C   0  0  0  0  0  0  0  0  0  0  0  0
   -0.3108  -51.4345  -25.6969 O   0  0  0  0  0  0  0  0  0  0  0  0
 10 11  1  0  0  0
 11 12  2  0  0  0
 11  1  1  0  0  0
  1  2  2  0  0  0
  2  3  1  0  0  0
  3  4  1  0  0  0
  4  5  1  0  0  0
  5  6  1  0  0  0
  6  7  2  0  0  0
  6  8  1  0  0  0
  8  9  2  0  0  0
  5  1  1  0  0  0
  8  4  1  0  0  0
M  CHG 1  10  -1
M  END
> <minimizedAffinity>
-4.21427

> <CNNscore>
0.5844803452

> <CNNaffinity>
3.6422023773

> <CNN_VS>
2.1287956238

> <CNNaffinity_variance>
0.0574083105

$$$$
[H]C1=C(C(=O)[O-])N2C(=O)C(=O)[C@@]2([H])S1


 12 13  0  0  0  0  0  0  0  0999 V2000
    1.0510  -52.5476  -20.8571 C   0  0  0  0  0  0  0  0  0  0  0  0
    0.2438  -53.2025  -20.0429 C   0  0  0  0  0  0  0  0  0  0  0  0
   -0.9094  -54.0750  -21.1498 S   0  0  0  0  0  0  0  0  0  0  0  0
   -0.6411  -52.8602  -22.5188 C   0  0  0  0  0  0  0  0  0  0  0  0
    0.8099  -52.7372  -22.2299 N   0  0  0  0  0  0  0  0  0  0  0  0
    0.9849  -52.9139  -23.6610 C   0  0  0  0  0  0  0  0  0  0  0  0
    1.9445  -52.7185  -24.4490 O   0  0  0  0  0  0  0  0  0  0  0  0
   -0.3753  -53.4021  -23.8260 C   0  0  0  0  0  0  0  0  0  0  0  0
   -0.9746  -54.0054  -24.7143 O   0  0  0  0  0  0  0  0  0  0  0  0
    3.0288  -52.0347  -19.3807 O   0  0  0  0  0  0  0  0  0  0  0  0
    2.1501  -51.6960  -20.3928 C   0  0  0  0  0  0  0  0  0  0  0  0
    2.3115  -50.5843  -20.9450 O   0  0  0  0  0  0  0  0  0  0  0  0
 10 11  1  0  0  0
 11 12  2  0  0  0
 11  1  1  0  0  0
  1  2  2  0  0  0
  2  3  1  0  0  0
  3  4  1  0  0  0
  4  5  1  0  0  0
  5  6  1  0  0  0
  6  7  2  0  0  0
  6  8  1  0  0  0
  8  9  2  0  0  0
  5  1  1  0  0  0
  8  4  1  0  0  0
M  CHG 1  10  -1
M  END
> <minimizedAffinity>
-4.45753

> <CNNscore>
0.5532132387

> <CNNaffinity>
3.6466548443

> <CNN_VS>
2.0173778534

> <CNNaffinity_variance>
0.0535441265

$$$$
[H]C1=C(C(=O)[O-])N2C(=O)C(=O)[C@@]2([H])S1


 12 13  0  0  0  0  0  0  0  0999 V2000
   -0.4137  -52.7378  -19.6566 C   0  0  0  0  0  0  0  0  0  0  0  0
   -0.8230  -52.8624  -18.4076 C   0  0  0  0  0  0  0  0  0  0  0  0
   -0.1525  -51.3964  -17.5603 S   0  0  0  0  0  0  0  0  0  0  0  0
    1.2091  -51.2045  -18.7976 C   0  0  0  0  0  0  0  0  0  0  0  0
    0.3327  -51.5786  -19.9360 N   0  0  0  0  0  0  0  0  0  0  0  0
    0.8890  -50.4069  -20.5900 C   0  0  0  0  0  0  0  0  0  0  0  0
    0.9062  -50.0032  -21.7802 O   0  0  0  0  0  0  0  0  0  0  0  0
    1.4154  -49.8860  -19.3381 C   0  0  0  0  0  0  0  0  0  0  0  0
    1.8355  -48.7917  -18.9667 O   0  0  0  0  0  0  0  0  0  0  0  0
    0.0969  -53.9840  -21.7874 O   0  0  0  0  0  0  0  0  0  0  0  0
   -0.7237  -53.7096  -20.7094 C   0  0  0  0  0  0  0  0  0  0  0  0
   -1.8035  -54.3384  -20.6352 O   0  0  0  0  0  0  0  0  0  0  0  0
 10 11  1  0  0  0
 11 12  2  0  0  0
 11  1  1  0  0  0
  1  2  2  0  0  0
  2  3  1  0  0  0
  3  4  1  0  0  0
  4  5  1  0  0  0
  5  6  1  0  0  0
  6  7  2  0  0  0
  6  8  1  0  0  0
  8  9  2  0  0  0
  5  1  1  0  0  0
  8  4  1  0  0  0
M  CHG 1  10  -1
M  END
> <minimizedAffinity>
-3.94934

> <CNNscore>
0.5472408533

> <CNNaffinity>
3.2622458935

> <CNN_VS>
1.7852342129

> <CNNaffinity_variance>
0.0596113577

$$$$
[H]C1=C(C(=O)[O-])N2C(=O)C(=O)[C@@]2([H])S1


 12 13  0  0  0  0  0  0  0  0999 V2000
    0.1008  -53.2527  -23.7234 C   0  0  0  0  0  0  0  0  0  0  0  0
    1.2417  -52.6219  -23.9321 C   0  0  0  0  0  0  0  0  0  0  0  0
    1.6735  -51.9136  -22.3109 S   0  0  0  0  0  0  0  0  0  0  0  0
   -0.0900  -51.9105  -21.7525 C   0  0  0  0  0  0  0  0  0  0  0  0
   -0.3790  -53.2140  -22.4016 N   0  0  0  0  0  0  0  0  0  0  0  0
   -0.9944  -53.5694  -21.1347 C   0  0  0  0  0  0  0  0  0  0  0  0
   -1.7746  -54.4872  -20.7758 O   0  0  0  0  0  0  0  0  0  0  0  0
   -0.3596  -52.4557  -20.4474 C   0  0  0  0  0  0  0  0  0  0  0  0
   -0.1686  -52.1644  -19.2681 O   0  0  0  0  0  0  0  0  0  0  0  0
   -0.9127  -55.3285  -24.7323 O   0  0  0  0  0  0  0  0  0  0  0  0
   -0.6255  -53.9769  -24.7707 C   0  0  0  0  0  0  0  0  0  0  0  0
   -1.0160  -53.3353  -25.7720 O   0  0  0  0  0  0  0  0  0  0  0  0
 10 11  1  0  0  0
 11 12  2  0  0  0
 11  1  1  0  0  0
  1  2  2  0  0  0
  2  3  1  0  0  0
  3  4  1  0  0  0
  4  5  1  0  0  0
  5  6  1  0  0  0
  6  7  2  0  0  0
  6  8  1  0  0  0
  8  9  2  0  0  0
  5  1  1  0  0  0
  8  4  1  0  0  0
M  CHG 1  10  -1
M  END
> <minimizedAffinity>
-4.96837

> <CNNscore>
0.4946440458

> <CNNaffinity>
3.6975262165

> <CNN_VS>
1.8289593458

> <CNNaffinity_variance>
0.0470557138

$$$$
[H]C1=C(C(=O)[O-])N2C(=O)C(=O)[C@@]2([H])S1


 12 13  0  0  0  0  0  0  0  0999 V2000
    1.1185  -52.2892  -21.9942 C   0  0  0  0  0  0  0  0  0  0  0  0
    2.2306  -51.7609  -21.5176 C   0  0  0  0  0  0  0  0  0  0  0  0
    1.9924  -51.7503  -19.7121 S   0  0  0  0  0  0  0  0  0  0  0  0
    0.1498  -51.7501  -19.8744 C   0  0  0  0  0  0  0  0  0  0  0  0
    0.1736  -52.6828  -21.0292 N   0  0  0  0  0  0  0  0  0  0  0  0
   -0.8620  -53.4047  -20.3106 C   0  0  0  0  0  0  0  0  0  0  0  0
   -1.6871  -54.2943  -20.6385 O   0  0  0  0  0  0  0  0  0  0  0  0
   -0.5738  -52.7008  -19.0707 C   0  0  0  0  0  0  0  0  0  0  0  0
   -0.8530  -52.8858  -17.8876 O   0  0  0  0  0  0  0  0  0  0  0  0
   -0.3814  -52.4430  -24.0143 O   0  0  0  0  0  0  0  0  0  0  0  0
    0.8678  -52.4910  -23.4243 C   0  0  0  0  0  0  0  0  0  0  0  0
    1.8462  -52.7232  -24.1697 O   0  0  0  0  0  0  0  0  0  0  0  0
 10 11  1  0  0  0
 11 12  2  0  0  0
 11  1  1  0  0  0
  1  2  2  0  0  0
  2  3  1  0  0  0
  3  4  1  0  0  0
  4  5  1  0  0  0
  5  6  1  0  0  0
  6  7  2  0  0  0
  6  8  1  0  0  0
  8  9  2  0  0  0
  5  1  1  0  0  0
  8  4  1  0  0  0
M  CHG 1  10  -1
M  END
> <minimizedAffinity>
-4.25289

> <CNNscore>
0.4927586317

> <CNNaffinity>
3.4117004871

> <CNN_VS>
1.6811448336

> <CNNaffinity_variance>
0.0602821894

$$$$
[H]C1=C(C(=O)[O-])N2C(=O)C(=O)[C@@]2([H])S1


 12 13  0  0  0  0  0  0  0  0999 V2000
   -0.4247  -53.1628  -22.1862 C   0  0  0  0  0  0  0  0  0  0  0  0
    0.2081  -52.3614  -21.3492 C   0  0  0  0  0  0  0  0  0  0  0  0
    1.1111  -51.2016  -22.4243 S   0  0  0  0  0  0  0  0  0  0  0  0
    1.1316  -52.3987  -23.8343 C   0  0  0  0  0  0  0  0  0  0  0  0
   -0.2457  -52.8751  -23.5514 N   0  0  0  0  0  0  0  0  0  0  0  0
   -0.4680  -52.6976  -24.9759 C   0  0  0  0  0  0  0  0  0  0  0  0
   -1.3585  -53.0906  -25.7711 O   0  0  0  0  0  0  0  0  0  0  0  0
    0.7346  -51.8927  -25.1225 C   0  0  0  0  0  0  0  0  0  0  0  0
    1.1658  -51.1341  -25.9890 O   0  0  0  0  0  0  0  0  0  0  0  0
   -1.6629  -55.3270  -22.5565 O   0  0  0  0  0  0  0  0  0  0  0  0
   -1.2847  -54.2679  -21.7526 C   0  0  0  0  0  0  0  0  0  0  0  0
   -1.7104  -54.2600  -20.5755 O   0  0  0  0  0  0  0  0  0  0  0  0
 10 11  1  0  0  0
 11 12  2  0  0  0
 11  1  1  0  0  0
  1  2  2  0  0  0
  2  3  1  0  0  0
  3  4  1  0  0  0
  4  5  1  0  0  0
  5  6  1  0  0  0
  6  7  2  0  0  0
  6  8  1  0  0  0
  8  9  2  0  0  0
  5  1  1  0  0  0
  8  4  1  0  0  0
M  CHG 1  10  -1
M  END
> <minimizedAffinity>
-5.03130

> <CNNscore>
0.4678413570

> <CNNaffinity>
3.6469140053

> <CNN_VS>
1.7061772346

> <CNNaffinity_variance>
0.0346636362

$$$$
[H]C1=C(C(=O)[O-])N2C(=O)C(=O)[C@@]2([H])S1


 12 13  0  0  0  0  0  0  0  0999 V2000
   -0.1854  -53.4704  -22.6316 C   0  0  0  0  0  0  0  0  0  0  0  0
    0.6769  -53.0294  -23.5289 C   0  0  0  0  0  0  0  0  0  0  0  0
    1.5110  -51.6326  -22.7105 S   0  0  0  0  0  0  0  0  0  0  0  0
    0.0834  -51.3435  -21.5704 C   0  0  0  0  0  0  0  0  0  0  0  0
   -0.1729  -52.7955  -21.3975 N   0  0  0  0  0  0  0  0  0  0  0  0
   -0.2329  -52.4910  -19.9784 C   0  0  0  0  0  0  0  0  0  0  0  0
   -0.6592  -53.1148  -18.9740 O   0  0  0  0  0  0  0  0  0  0  0  0
    0.3890  -51.1904  -20.1717 C   0  0  0  0  0  0  0  0  0  0  0  0
    0.9231  -50.3694  -19.4282 O   0  0  0  0  0  0  0  0  0  0  0  0
   -1.2285  -55.2527  -24.0771 O   0  0  0  0  0  0  0  0  0  0  0  0
   -1.0875  -54.6019  -22.8657 C   0  0  0  0  0  0  0  0  0  0  0  0
   -1.7814  -55.0135  -21.9087 O   0  0  0  0  0  0  0  0  0  0  0  0
 10 11  1  0  0  0
 11 12  2  0  0  0
 11  1  1  0  0  0
  1  2  2  0  0  0
  2  3  1  0  0  0
  3  4  1  0  0  0
  4  5  1  0  0  0
  5  6  1  0  0  0
  6  7  2  0  0  0
  6  8  1  0  0  0
  8  9  2  0  0  0
  5  1  1  0  0  0
  8  4  1  0  0  0
M  CHG 1  10  -1
M  END
> <minimizedAffinity>
-4.55702

> <CNNscore>
0.4645281136

> <CNNaffinity>
3.4876277447

> <CNN_VS>
1.6201010942

> <CNNaffinity_variance>
0.0476814061

$$$$
[H]C1=C(C(=O)[O-])N2C(=O)C(=O)[C@@]2([H])S1


 12 13  0  0  0  0  0  0  0  0999 V2000
   -0.4355  -53.9104  -22.7018 C   0  0  0  0  0  0  0  0  0  0  0  0
   -0.9177  -54.6104  -23.7121 C   0  0  0  0  0  0  0  0  0  0  0  0
   -0.2549  -53.7860  -25.1946 S   0  0  0  0  0  0  0  0  0  0  0  0
   -0.0435  -52.1783  -24.3045 C   0  0  0  0  0  0  0  0  0  0  0  0
    0.4069  -52.8405  -23.0544 N   0  0  0  0  0  0  0  0  0  0  0  0
    1.4790  -51.8604  -23.0666 C   0  0  0  0  0  0  0  0  0  0  0  0
    2.3056  -51.4673  -22.2052 O   0  0  0  0  0  0  0  0  0  0  0  0
    1.2245  -51.5132  -24.4560 C   0  0  0  0  0  0  0  0  0  0  0  0
    1.8542  -50.9139  -25.3257 O   0  0  0  0  0  0  0  0  0  0  0  0
    0.2224  -54.1857  -20.2841 O   0  0  0  0  0  0  0  0  0  0  0  0
   -0.7178  -54.2195  -21.2970 C   0  0  0  0  0  0  0  0  0  0  0  0
   -1.8875  -54.5367  -20.9841 O   0  0  0  0  0  0  0  0  0  0  0  0
 10 11  1  0  0  0
 11 12  2  0  0  0
 11  1  1  0  0  0
  1  2  2  0  0  0
  2  3  1  0  0  0
  3  4  1  0  0  0
  4  5  1  0  0  0
  5  6  1  0  0  0
  6  7  2  0  0  0
  6  8  1  0  0  0
  8  9  2  0  0  0
  5  1  1  0  0  0
  8  4  1  0  0  0
M  CHG 1  10  -1
M  END
> <minimizedAffinity>
-4.48226

> <CNNscore>
0.4504823089

> <CNNaffinity>
3.5804321766

> <CNN_VS>
1.6129213572

> <CNNaffinity_variance>
0.0816948339

$$$$
[H]OC1(C(F)(F)F)c2c([H])c([H])c([H])c([H])c2-c2c(-c3c([H])c([H])c([C@@](C(=O)N4C([H])([H])C([H])([H])OC([H])([H])[C@@]4([H])C([H])([H])[H])(N(C([H])([H])[H])C([H])([H])[H])C([H])([H])[H])c([H])c3[H])c([H])c(Cl)c([H])c21


 40 44  0  0  0  0  0  0  0  0999 V2000
    2.4932  -49.3811  -19.3278 C   0  0  0  0  0  0  0  0  0  0  0  0
    3.5703  -50.0126  -19.9763 C   0  0  0  0  0  0  0  0  0  0  0  0
    3.5138  -50.3964  -21.2769 C   0  0  0  0  0  0  0  0  0  0  0  0
    2.3557  -50.1533  -21.9693 C   0  0  0  0  0  0  0  0  0  0  0  0
    1.2866  -49.5380  -21.3563 C   0  0  0  0  0  0  0  0  0  0  0  0
    1.3481  -49.1499  -20.0370 C   0  0  0  0  0  0  0  0  0  0  0  0
    2.2826  -50.5002  -23.3809 C   0  0  0  0  0  0  0  0  0  0  0  0
    2.9869  -49.7022  -24.3038 C   0  0  0  0  0  0  0  0  0  0  0  0
    2.9313  -49.9405  -25.6506 C   0  0  0  0  0  0  0  0  0  0  0  0
    3.8180  -48.9343  -26.7944 Cl  0  0  0  0  0  0  0  0  0  0  0  0
    2.1593  -50.9914  -26.0699 C   0  0  0  0  0  0  0  0  0  0  0  0
    1.4523  -51.7940  -25.1470 C   0  0  0  0  0  0  0  0  0  0  0  0
    1.5074  -51.5575  -23.7947 C   0  0  0  0  0  0  0  0  0  0  0  0
    0.6933  -52.5627  -23.1129 C   0  0  0  0  0  0  0  0  0  0  0  0
    0.4137  -52.8069  -21.7844 C   0  0  0  0  0  0  0  0  0  0  0  0
   -0.4074  -53.8818  -21.4129 C   0  0  0  0  0  0  0  0  0  0  0  0
   -0.9632  -54.7295  -22.3395 C   0  0  0  0  0  0  0  0  0  0  0  0
   -0.6806  -54.4809  -23.6562 C   0  0  0  0  0  0  0  0  0  0  0  0
    0.1423  -53.4049  -24.0450 C   0  0  0  0  0  0  0  0  0  0  0  0
    0.5741  -52.9524  -25.3761 C   0  0  0  0  0  0  0  0  0  0  0  0
    1.2071  -53.9626  -26.1003 O   0  0  0  0  0  0  0  0  0  0  0  0
    0.9162  -53.9154  -27.0536 H   0  0  0  0  0  0  0  0  0  0  0  0
   -0.6657  -52.4568  -26.1278 C   0  0  0  0  0  0  0  0  0  0  0  0
   -1.3269  -53.5418  -26.6686 F   0  0  0  0  0  0  0  0  0  0  0  0
   -0.2780  -51.6444  -27.1801 F   0  0  0  0  0  0  0  0  0  0  0  0
   -1.5403  -51.8084  -25.2812 F   0  0  0  0  0  0  0  0  0  0  0  0
    2.7431  -49.0257  -17.9244 C   0  0  0  0  0  0  0  0  0  0  0  0
    1.3065  -48.6581  -17.4064 C   0  0  0  0  0  0  0  0  0  0  0  0
    4.3195  -49.0681  -13.9880 C   0  0  0  0  0  0  0  0  0  0  0  0
    3.0282  -49.2741  -14.7940 C   0  0  0  0  0  0  0  0  0  0  0  0
    2.0238  -49.8819  -13.8024 C   0  0  0  0  0  0  0  0  0  0  0  0
    1.6491  -51.1546  -14.1465 O   0  0  0  0  0  0  0  0  0  0  0  0
    2.6687  -52.0618  -14.2826 C   0  0  0  0  0  0  0  0  0  0  0  0
    3.8020  -51.5534  -15.1463 C   0  0  0  0  0  0  0  0  0  0  0  0
    3.3190  -50.3016  -15.7581 N   0  0  0  0  0  0  0  0  0  0  0  0
    3.1891  -50.2189  -17.1574 C   0  0  0  0  0  0  0  0  0  0  0  0
    3.4971  -51.3077  -17.7699 O   0  0  0  0  0  0  0  0  0  0  0  0
    3.5646  -47.8988  -17.7642 N   0  0  0  0  0  0  0  0  0  0  0  0
    4.9641  -48.0264  -17.8589 C   0  0  0  0  0  0  0  0  0  0  0  0
    3.1111  -46.6676  -18.3081 C   0  0  0  0  0  0  0  0  0  0  0  0
 29 30  1  0  0  0
 30 31  1  0  0  0
 31 32  1  0  0  0
 32 33  1  0  0  0
 33 34  1  0  0  0
 34 35  1  0  0  0
 35 36  1  0  0  0
 36 37  2  0  0  0
 27 36  1  0  0  0
 27 28  1  0  0  0
 27 38  1  0  0  0
 38 39  1  0  0  0
 38 40  1  0  0  0
 27  1  1  0  0  0
  1  2  2  0  0  0
  2  3  1  0  0  0
  3  4  2  0  0  0
  4  5  1  0  0  0
  5  6  2  0  0  0
  4  7  1  0  0  0
  7  8  2  0  0  0
  8  9  1  0  0  0
  9 10  1  0  0  0
  9 11  2  0  0  0
 11 12  1  0  0  0
 12 13  2  0  0  0
 13 14  1  0  0  0
 14 15  2  0  0  0
 15 16  1  0  0  0
 16 17  2  0  0  0
 17 18  1  0  0  0
 18 19  2  0  0  0
 19 20  1  0  0  0
 20 21  1  0  0  0
 20 23  1  0  0  0
 23 24  1  0  0  0
 23 25  1  0  0  0
 23 26  1  0  0  0
 35 30  1  0  0  0
  6  1  1  0  0  0
 13  7  1  0  0  0
 19 14  1  0  0  0
 20 12  1  0  0  0
 21 22  1  0  0  0
M  END
> <minimizedAffinity>
-9.49270

> <CNNscore>
0.2216072232

> <CNNaffinity>
6.5949096680

> <CNN_VS>
1.4614796638

> <CNNaffinity_variance>
0.1623072326

$$$$
[H]OC1(C(F)(F)F)c2c([H])c([H])c([H])c([H])c2-c2c(-c3c([H])c([H])c([C@@](C(=O)N4C([H])([H])C([H])([H])OC([H])([H])[C@@]4([H])C([H])([H])[H])(N(C([H])([H])[H])C([H])([H])[H])C([H])([H])[H])c([H])c3[H])c([H])c(Cl)c([H])c21


 40 44  0  0  0  0  0  0  0  0999 V2000
   -0.2620  -50.7318  -16.8404 C   0  0  0  0  0  0  0  0  0  0  0  0
   -0.7659  -51.9893  -17.2202 C   0  0  0  0  0  0  0  0  0  0  0  0
   -0.6716  -52.4587  -18.4902 C   0  0  0  0  0  0  0  0  0  0  0  0
   -0.0606  -51.6641  -19.4256 C   0  0  0  0  0  0  0  0  0  0  0  0
    0.4395  -50.4284  -19.0790 C   0  0  0  0  0  0  0  0  0  0  0  0
    0.3421  -49.9561  -17.7897 C   0  0  0  0  0  0  0  0  0  0  0  0
    0.1082  -52.1615  -20.7830 C   0  0  0  0  0  0  0  0  0  0  0  0
   -0.5235  -53.3699  -21.1366 C   0  0  0  0  0  0  0  0  0  0  0  0
   -0.3759  -53.9219  -22.3806 C   0  0  0  0  0  0  0  0  0  0  0  0
   -1.1725  -55.4345  -22.8100 Cl  0  0  0  0  0  0  0  0  0  0  0  0
    0.4151  -53.2501  -23.2746 C   0  0  0  0  0  0  0  0  0  0  0  0
    1.0495  -52.0377  -22.9233 C   0  0  0  0  0  0  0  0  0  0  0  0
    0.9019  -51.4811  -21.6758 C   0  0  0  0  0  0  0  0  0  0  0  0
    1.6583  -50.2306  -21.6316 C   0  0  0  0  0  0  0  0  0  0  0  0
    1.8424  -49.2739  -20.6551 C   0  0  0  0  0  0  0  0  0  0  0  0
    2.6270  -48.1384  -20.9062 C   0  0  0  0  0  0  0  0  0  0  0  0
    3.2393  -47.9280  -22.1173 C   0  0  0  0  0  0  0  0  0  0  0  0
    3.0515  -48.8820  -23.0817 C   0  0  0  0  0  0  0  0  0  0  0  0
    2.2663  -50.0280  -22.8445 C   0  0  0  0  0  0  0  0  0  0  0  0
    1.9322  -51.1657  -23.7146 C   0  0  0  0  0  0  0  0  0  0  0  0
    1.3433  -50.7622  -24.9129 O   0  0  0  0  0  0  0  0  0  0  0  0
    1.7005  -51.3201  -25.6591 H   0  0  0  0  0  0  0  0  0  0  0  0
    3.2255  -51.9392  -23.9922 C   0  0  0  0  0  0  0  0  0  0  0  0
    2.9067  -53.1643  -24.5441 F   0  0  0  0  0  0  0  0  0  0  0  0
    3.8863  -52.1840  -22.8002 F   0  0  0  0  0  0  0  0  0  0  0  0
    4.0291  -51.2680  -24.8899 F   0  0  0  0  0  0  0  0  0  0  0  0
   -0.4426  -50.4000  -15.4207 C   0  0  0  0  0  0  0  0  0  0  0  0
    0.6540  -49.3000  -15.1872 C   0  0  0  0  0  0  0  0  0  0  0  0
   -4.2478  -51.9948  -16.4000 C   0  0  0  0  0  0  0  0  0  0  0  0
   -3.2522  -51.8203  -15.2433 C   0  0  0  0  0  0  0  0  0  0  0  0
   -4.0263  -52.2209  -13.9778 C   0  0  0  0  0  0  0  0  0  0  0  0
   -4.1917  -51.1742  -13.1085 O   0  0  0  0  0  0  0  0  0  0  0  0
   -4.8165  -50.0655  -13.6199 C   0  0  0  0  0  0  0  0  0  0  0  0
   -4.2352  -49.6155  -14.9422 C   0  0  0  0  0  0  0  0  0  0  0  0
   -3.0062  -50.4067  -15.1381 N   0  0  0  0  0  0  0  0  0  0  0  0
   -1.7624  -49.7507  -15.2025 C   0  0  0  0  0  0  0  0  0  0  0  0
   -1.8423  -48.4758  -15.0491 O   0  0  0  0  0  0  0  0  0  0  0  0
   -0.1771  -51.4699  -14.5517 N   0  0  0  0  0  0  0  0  0  0  0  0
    1.0592  -52.1418  -14.6167 C   0  0  0  0  0  0  0  0  0  0  0  0
   -0.6518  -51.3707  -13.2167 C   0  0  0  0  0  0  0  0  0  0  0  0
 29 30  1  0  0  0
 30 31  1  0  0  0
 31 32  1  0  0  0
 32 33  1  0  0  0
 33 34  1  0  0  0
 34 35  1  0  0  0
 35 36  1  0  0  0
 36 37  2  0  0  0
 27 36  1  0  0  0
 27 28  1  0  0  0
 27 38  1  0  0  0
 38 39  1  0  0  0
 38 40  1  0  0  0
 27  1  1  0  0  0
  1  2  2  0  0  0
  2  3  1  0  0  0
  3  4  2  0  0  0
  4  5  1  0  0  0
  5  6  2  0  0  0
  4  7  1  0  0  0
  7  8  2  0  0  0
  8  9  1  0  0  0
  9 10  1  0  0  0
  9 11  2  0  0  0
 11 12  1  0  0  0
 12 13  2  0  0  0
 13 14  1  0  0  0
 14 15  2  0  0  0
 15 16  1  0  0  0
 16 17  2  0  0  0
 17 18  1  0  0  0
 18 19  2  0  0  0
 19 20  1  0  0  0
 20 21  1  0  0  0
 20 23  1  0  0  0
 23 24  1  0  0  0
 23 25  1  0  0  0
 23 26  1  0  0  0
 35 30  1  0  0  0
  6  1  1  0  0  0
 13  7  1  0  0  0
 19 14  1  0  0  0
 20 12  1  0  0  0
 21 22  1  0  0  0
M  END
> <minimizedAffinity>
-9.60824

> <CNNscore>
0.2094317079

> <CNNaffinity>
6.6613540649

> <CNN_VS>
1.3950988054

> <CNNaffinity_variance>
0.1082695723

$$$$
[H]OC1(C(F)(F)F)c2c([H])c([H])c([H])c([H])c2-c2c(-c3c([H])c([H])c([C@@](C(=O)N4C([H])([H])C([H])([H])OC([H])([H])[C@@]4([H])C([H])([H])[H])(N(C([H])([H])[H])C([H])([H])[H])C([H])([H])[H])c([H])c3[H])c([H])c(Cl)c([H])c21


 40 44  0  0  0  0  0  0  0  0999 V2000
    0.4904  -52.4287  -22.9385 C   0  0  0  0  0  0  0  0  0  0  0  0
    0.8302  -53.4475  -22.0296 C   0  0  0  0  0  0  0  0  0  0  0  0
    0.5727  -53.3537  -20.7003 C   0  0  0  0  0  0  0  0  0  0  0  0
   -0.0407  -52.2161  -20.2430 C   0  0  0  0  0  0  0  0  0  0  0  0
   -0.3818  -51.2038  -21.1125 C   0  0  0  0  0  0  0  0  0  0  0  0
   -0.1192  -51.3030  -22.4602 C   0  0  0  0  0  0  0  0  0  0  0  0
   -0.3828  -52.1082  -18.8324 C   0  0  0  0  0  0  0  0  0  0  0  0
   -1.5979  -52.6698  -18.3934 C   0  0  0  0  0  0  0  0  0  0  0  0
   -2.0074  -52.5706  -17.0909 C   0  0  0  0  0  0  0  0  0  0  0  0
   -3.5301  -53.2783  -16.5549 Cl  0  0  0  0  0  0  0  0  0  0  0  0
   -1.1852  -51.8997  -16.2248 C   0  0  0  0  0  0  0  0  0  0  0  0
    0.0342  -51.3360  -16.6617 C   0  0  0  0  0  0  0  0  0  0  0  0
    0.4479  -51.4352  -17.9682 C   0  0  0  0  0  0  0  0  0  0  0  0
    1.7463  -50.7753  -18.0966 C   0  0  0  0  0  0  0  0  0  0  0  0
    2.6117  -50.5947  -19.1555 C   0  0  0  0  0  0  0  0  0  0  0  0
    3.8281  -49.9192  -18.9769 C   0  0  0  0  0  0  0  0  0  0  0  0
    4.2099  -49.4137  -17.7585 C   0  0  0  0  0  0  0  0  0  0  0  0
    3.3457  -49.5973  -16.7121 C   0  0  0  0  0  0  0  0  0  0  0  0
    2.1201  -50.2736  -16.8758 C   0  0  0  0  0  0  0  0  0  0  0  0
    1.0521  -50.5818  -15.9129 C   0  0  0  0  0  0  0  0  0  0  0  0
    1.5239  -51.2847  -14.8043 O   0  0  0  0  0  0  0  0  0  0  0  0
    1.0758  -50.9407  -13.9817 H   0  0  0  0  0  0  0  0  0  0  0  0
    0.4210  -49.2567  -15.4726 C   0  0  0  0  0  0  0  0  0  0  0  0
   -0.4553  -49.4997  -14.4334 F   0  0  0  0  0  0  0  0  0  0  0  0
   -0.3158  -48.7227  -16.5164 F   0  0  0  0  0  0  0  0  0  0  0  0
    1.3769  -48.3711  -15.0206 F   0  0  0  0  0  0  0  0  0  0  0  0
    0.8337  -52.7135  -24.3382 C   0  0  0  0  0  0  0  0  0  0  0  0
    0.2473  -51.4663  -25.0919 C   0  0  0  0  0  0  0  0  0  0  0  0
    3.2334  -49.2820  -25.0081 C   0  0  0  0  0  0  0  0  0  0  0  0
    2.7519  -50.2471  -23.9143 C   0  0  0  0  0  0  0  0  0  0  0  0
    3.6082  -49.9215  -22.6805 C   0  0  0  0  0  0  0  0  0  0  0  0
    4.4158  -50.9652  -22.3102 O   0  0  0  0  0  0  0  0  0  0  0  0
    5.2730  -51.4294  -23.2751 C   0  0  0  0  0  0  0  0  0  0  0  0
    4.5894  -51.6864  -24.6000 C   0  0  0  0  0  0  0  0  0  0  0  0
    3.1423  -51.5636  -24.3433 N   0  0  0  0  0  0  0  0  0  0  0  0
    2.3080  -52.6822  -24.5286 C   0  0  0  0  0  0  0  0  0  0  0  0
    2.9391  -53.7424  -24.8934 O   0  0  0  0  0  0  0  0  0  0  0  0
    0.2117  -53.8629  -24.8504 N   0  0  0  0  0  0  0  0  0  0  0  0
   -0.8873  -54.4303  -24.1764 C   0  0  0  0  0  0  0  0  0  0  0  0
    0.0749  -53.9680  -26.2602 C   0  0  0  0  0  0  0  0  0  0  0  0
 29 30  1  0  0  0
 30 31  1  0  0  0
 31 32  1  0  0  0
 32 33  1  0  0  0
 33 34  1  0  0  0
 34 35  1  0  0  0
 35 36  1  0  0  0
 36 37  2  0  0  0
 27 36  1  0  0  0
 27 28  1  0  0  0
 27 38  1  0  0  0
 38 39  1  0  0  0
 38 40  1  0  0  0
 27  1  1  0  0  0
  1  2  2  0  0  0
  2  3  1  0  0  0
  3  4  2  0  0  0
  4  5  1  0  0  0
  5  6  2  0  0  0
  4  7  1  0  0  0
  7  8  2  0  0  0
  8  9  1  0  0  0
  9 10  1  0  0  0
  9 11  2  0  0  0
 11 12  1  0  0  0
 12 13  2  0  0  0
 13 14  1  0  0  0
 14 15  2  0  0  0
 15 16  1  0  0  0
 16 17  2  0  0  0
 17 18  1  0  0  0
 18 19  2  0  0  0
 19 20  1  0  0  0
 20 21  1  0  0  0
 20 23  1  0  0  0
 23 24  1  0  0  0
 23 25  1  0  0  0
 23 26  1  0  0  0
 35 30  1  0  0  0
  6  1  1  0  0  0
 13  7  1  0  0  0
 19 14  1  0  0  0
 20 12  1  0  0  0
 21 22  1  0  0  0
M  END
> <minimizedAffinity>
-7.97055

> <CNNscore>
0.1868765950

> <CNNaffinity>
6.7475013733

> <CNN_VS>
1.2609500885

> <CNNaffinity_variance>
0.1921171248

$$$$
[H]OC1(C(F)(F)F)c2c([H])c([H])c([H])c([H])c2-c2c(-c3c([H])c([H])c([C@@](C(=O)N4C([H])([H])C([H])([H])OC([H])([H])[C@@]4([H])C([H])([H])[H])(N(C([H])([H])[H])C([H])([H])[H])C([H])([H])[H])c([H])c3[H])c([H])c(Cl)c([H])c21


 40 44  0  0  0  0  0  0  0  0999 V2000
    0.3512  -50.6457  -17.2384 C   0  0  0  0  0  0  0  0  0  0  0  0
    0.1121  -52.0065  -17.5037 C   0  0  0  0  0  0  0  0  0  0  0  0
    0.0400  -52.5011  -18.7655 C   0  0  0  0  0  0  0  0  0  0  0  0
    0.2074  -51.6276  -19.8089 C   0  0  0  0  0  0  0  0  0  0  0  0
    0.4410  -50.2905  -19.5753 C   0  0  0  0  0  0  0  0  0  0  0  0
    0.5137  -49.7929  -18.2938 C   0  0  0  0  0  0  0  0  0  0  0  0
    0.1932  -52.1351  -21.1730 C   0  0  0  0  0  0  0  0  0  0  0  0
   -0.6174  -53.2498  -21.4643 C   0  0  0  0  0  0  0  0  0  0  0  0
   -0.6498  -53.8093  -22.7132 C   0  0  0  0  0  0  0  0  0  0  0  0
   -1.6691  -55.2039  -23.0640 Cl  0  0  0  0  0  0  0  0  0  0  0  0
    0.1416  -53.2404  -23.6756 C   0  0  0  0  0  0  0  0  0  0  0  0
    0.9552  -52.1222  -23.3870 C   0  0  0  0  0  0  0  0  0  0  0  0
    0.9886  -51.5581  -22.1345 C   0  0  0  0  0  0  0  0  0  0  0  0
    1.9012  -50.4161  -22.1626 C   0  0  0  0  0  0  0  0  0  0  0  0
    2.2906  -49.4966  -21.2109 C   0  0  0  0  0  0  0  0  0  0  0  0
    3.1909  -48.4707  -21.5349 C   0  0  0  0  0  0  0  0  0  0  0  0
    3.7189  -48.3345  -22.7953 C   0  0  0  0  0  0  0  0  0  0  0  0
    3.3272  -49.2509  -23.7346 C   0  0  0  0  0  0  0  0  0  0  0  0
    2.4238  -50.2871  -23.4243 C   0  0  0  0  0  0  0  0  0  0  0  0
    1.8720  -51.3672  -24.2560 C   0  0  0  0  0  0  0  0  0  0  0  0
    1.2394  -50.8844  -25.4016 O   0  0  0  0  0  0  0  0  0  0  0  0
    1.4561  -51.4796  -26.1725 H   0  0  0  0  0  0  0  0  0  0  0  0
    3.0258  -52.2999  -24.6394 C   0  0  0  0  0  0  0  0  0  0  0  0
    3.8307  -52.4964  -23.5347 F   0  0  0  0  0  0  0  0  0  0  0  0
    3.8044  -51.7001  -25.6149 F   0  0  0  0  0  0  0  0  0  0  0  0
    2.5606  -53.5324  -25.0476 F   0  0  0  0  0  0  0  0  0  0  0  0
    0.4099  -50.2981  -15.8122 C   0  0  0  0  0  0  0  0  0  0  0  0
    1.6326  -51.1447  -15.3067 C   0  0  0  0  0  0  0  0  0  0  0  0
   -2.2648  -47.0448  -15.3180 C   0  0  0  0  0  0  0  0  0  0  0  0
   -1.3715  -48.0262  -14.5444 C   0  0  0  0  0  0  0  0  0  0  0  0
   -1.3251  -47.4854  -13.1067 C   0  0  0  0  0  0  0  0  0  0  0  0
   -0.0671  -47.0891  -12.7338 O   0  0  0  0  0  0  0  0  0  0  0  0
    0.5224  -46.1420  -13.5317 C   0  0  0  0  0  0  0  0  0  0  0  0
    0.4499  -46.4804  -15.0045 C   0  0  0  0  0  0  0  0  0  0  0  0
   -0.0460  -47.8673  -15.0806 N   0  0  0  0  0  0  0  0  0  0  0  0
    0.7726  -48.8663  -15.6406 C   0  0  0  0  0  0  0  0  0  0  0  0
    1.9264  -48.4384  -16.0160 O   0  0  0  0  0  0  0  0  0  0  0  0
   -0.7239  -50.6954  -15.0862 N   0  0  0  0  0  0  0  0  0  0  0  0
   -1.9107  -51.0382  -15.7628 C   0  0  0  0  0  0  0  0  0  0  0  0
   -0.5224  -51.5040  -13.9360 C   0  0  0  0  0  0  0  0  0  0  0  0
 29 30  1  0  0  0
 30 31  1  0  0  0
 31 32  1  0  0  0
 32 33  1  0  0  0
 33 34  1  0  0  0
 34 35  1  0  0  0
 35 36  1  0  0  0
 36 37  2  0  0  0
 27 36  1  0  0  0
 27 28  1  0  0  0
 27 38  1  0  0  0
 38 39  1  0  0  0
 38 40  1  0  0  0
 27  1  1  0  0  0
  1  2  2  0  0  0
  2  3  1  0  0  0
  3  4  2  0  0  0
  4  5  1  0  0  0
  5  6  2  0  0  0
  4  7  1  0  0  0
  7  8  2  0  0  0
  8  9  1  0  0  0
  9 10  1  0  0  0
  9 11  2  0  0  0
 11 12  1  0  0  0
 12 13  2  0  0  0
 13 14  1  0  0  0
 14 15  2  0  0  0
 15 16  1  0  0  0
 16 17  2  0  0  0
 17 18  1  0  0  0
 18 19  2  0  0  0
 19 20  1  0  0  0
 20 21  1  0  0  0
 20 23  1  0  0  0
 23 24  1  0  0  0
 23 25  1  0  0  0
 23 26  1  0  0  0
 35 30  1  0  0  0
  6  1  1  0  0  0
 13  7  1  0  0  0
 19 14  1  0  0  0
 20 12  1  0  0  0
 21 22  1  0  0  0
M  END
> <minimizedAffinity>
-8.30571

> <CNNscore>
0.1787140369

> <CNNaffinity>
6.4739785194

> <CNN_VS>
1.1569908857

> <CNNaffinity_variance>
0.1586042792

$$$$
[H]OC1(C(F)(F)F)c2c([H])c([H])c([H])c([H])c2-c2c(-c3c([H])c([H])c([C@@](C(=O)N4C([H])([H])C([H])([H])OC([H])([H])[C@@]4([H])C([H])([H])[H])(N(C([H])([H])[H])C([H])([H])[H])C([H])([H])[H])c([H])c3[H])c([H])c(Cl)c([H])c21


 40 44  0  0  0  0  0  0  0  0999 V2000
    4.2427  -48.0193  -21.8069 C   0  0  0  0  0  0  0  0  0  0  0  0
    2.9264  -47.9117  -22.2921 C   0  0  0  0  0  0  0  0  0  0  0  0
    2.1594  -48.9976  -22.5649 C   0  0  0  0  0  0  0  0  0  0  0  0
    2.7039  -50.2383  -22.3555 C   0  0  0  0  0  0  0  0  0  0  0  0
    3.9908  -50.3701  -21.8826 C   0  0  0  0  0  0  0  0  0  0  0  0
    4.7654  -49.2661  -21.6068 C   0  0  0  0  0  0  0  0  0  0  0  0
    1.8888  -51.4224  -22.5833 C   0  0  0  0  0  0  0  0  0  0  0  0
    1.8662  -51.9809  -23.8764 C   0  0  0  0  0  0  0  0  0  0  0  0
    1.0905  -53.0680  -24.1773 C   0  0  0  0  0  0  0  0  0  0  0  0
    1.0719  -53.7571  -25.7995 Cl  0  0  0  0  0  0  0  0  0  0  0  0
    0.3316  -53.5956  -23.1663 C   0  0  0  0  0  0  0  0  0  0  0  0
    0.3526  -53.0383  -21.8683 C   0  0  0  0  0  0  0  0  0  0  0  0
    1.1312  -51.9480  -21.5637 C   0  0  0  0  0  0  0  0  0  0  0  0
    0.9503  -51.6277  -20.1485 C   0  0  0  0  0  0  0  0  0  0  0  0
    1.4911  -50.6638  -19.3232 C   0  0  0  0  0  0  0  0  0  0  0  0
    1.1377  -50.6044  -17.9669 C   0  0  0  0  0  0  0  0  0  0  0  0
    0.2508  -51.4893  -17.4046 C   0  0  0  0  0  0  0  0  0  0  0  0
   -0.2815  -52.4435  -18.2303 C   0  0  0  0  0  0  0  0  0  0  0  0
    0.0636  -52.5159  -19.5947 C   0  0  0  0  0  0  0  0  0  0  0  0
   -0.3755  -53.4376  -20.6534 C   0  0  0  0  0  0  0  0  0  0  0  0
   -0.1556  -54.7736  -20.3185 O   0  0  0  0  0  0  0  0  0  0  0  0
   -0.9340  -55.3205  -20.6196 H   0  0  0  0  0  0  0  0  0  0  0  0
   -1.8674  -53.1906  -20.9009 C   0  0  0  0  0  0  0  0  0  0  0  0
   -2.4344  -54.3408  -21.4132 F   0  0  0  0  0  0  0  0  0  0  0  0
   -2.0228  -52.1960  -21.8519 F   0  0  0  0  0  0  0  0  0  0  0  0
   -2.5261  -52.8806  -19.7296 F   0  0  0  0  0  0  0  0  0  0  0  0
    4.9126  -46.7361  -21.5558 C   0  0  0  0  0  0  0  0  0  0  0  0
    4.5781  -45.9188  -22.8548 C   0  0  0  0  0  0  0  0  0  0  0  0
    4.1080  -48.3210  -17.7057 C   0  0  0  0  0  0  0  0  0  0  0  0
    5.1159  -47.4738  -18.4969 C   0  0  0  0  0  0  0  0  0  0  0  0
    6.0469  -46.8591  -17.4401 C   0  0  0  0  0  0  0  0  0  0  0  0
    5.9544  -45.4926  -17.3881 O   0  0  0  0  0  0  0  0  0  0  0  0
    4.7013  -44.9867  -17.1534 C   0  0  0  0  0  0  0  0  0  0  0  0
    3.6418  -45.5912  -18.0483 C   0  0  0  0  0  0  0  0  0  0  0  0
    4.3655  -46.3832  -19.0602 N   0  0  0  0  0  0  0  0  0  0  0  0
    4.2683  -46.0271  -20.4187 C   0  0  0  0  0  0  0  0  0  0  0  0
    3.5446  -44.9843  -20.6288 O   0  0  0  0  0  0  0  0  0  0  0  0
    6.3089  -46.8378  -21.4536 N   0  0  0  0  0  0  0  0  0  0  0  0
    7.0095  -47.7629  -22.2520 C   0  0  0  0  0  0  0  0  0  0  0  0
    7.0471  -45.6386  -21.2683 C   0  0  0  0  0  0  0  0  0  0  0  0
 29 30  1  0  0  0
 30 31  1  0  0  0
 31 32  1  0  0  0
 32 33  1  0  0  0
 33 34  1  0  0  0
 34 35  1  0  0  0
 35 36  1  0  0  0
 36 37  2  0  0  0
 27 36  1  0  0  0
 27 28  1  0  0  0
 27 38  1  0  0  0
 38 39  1  0  0  0
 38 40  1  0  0  0
 27  1  1  0  0  0
  1  2  2  0  0  0
  2  3  1  0  0  0
  3  4  2  0  0  0
  4  5  1  0  0  0
  5  6  2  0  0  0
  4  7  1  0  0  0
  7  8  2  0  0  0
  8  9  1  0  0  0
  9 10  1  0  0  0
  9 11  2  0  0  0
 11 12  1  0  0  0
 12 13  2  0  0  0
 13 14  1  0  0  0
 14 15  2  0  0  0
 15 16  1  0  0  0
 16 17  2  0  0  0
 17 18  1  0  0  0
 18 19  2  0  0  0
 19 20  1  0  0  0
 20 21  1  0  0  0
 20 23  1  0  0  0
 23 24  1  0  0  0
 23 25  1  0  0  0
 23 26  1  0  0  0
 35 30  1  0  0  0
  6  1  1  0  0  0
 13  7  1  0  0  0
 19 14  1  0  0  0
 20 12  1  0  0  0
 21 22  1  0  0  0
M  END
> <minimizedAffinity>
-7.19381

> <CNNscore>
0.1762616187

> <CNNaffinity>
6.3801774979

> <CNN_VS>
1.1245803833

> <CNNaffinity_variance>
0.3544552922

$$$$
[H]OC1(C(F)(F)F)c2c([H])c([H])c([H])c([H])c2-c2c(-c3c([H])c([H])c([C@@](C(=O)N4C([H])([H])C([H])([H])OC([H])([H])[C@@]4([H])C([H])([H])[H])(N(C([H])([H])[H])C([H])([H])[H])C([H])([H])[H])c([H])c3[H])c([H])c(Cl)c([H])c21


 40 44  0  0  0  0  0  0  0  0999 V2000
    1.6364  -50.4759  -18.4205 C   0  0  0  0  0  0  0  0  0  0  0  0
    0.8221  -49.7492  -19.3084 C   0  0  0  0  0  0  0  0  0  0  0  0
    0.9586  -49.8326  -20.6562 C   0  0  0  0  0  0  0  0  0  0  0  0
    1.9322  -50.6597  -21.1539 C   0  0  0  0  0  0  0  0  0  0  0  0
    2.7432  -51.3803  -20.3053 C   0  0  0  0  0  0  0  0  0  0  0  0
    2.6013  -51.2932  -18.9387 C   0  0  0  0  0  0  0  0  0  0  0  0
    2.0671  -50.8161  -22.5946 C   0  0  0  0  0  0  0  0  0  0  0  0
    2.9116  -49.9273  -23.2884 C   0  0  0  0  0  0  0  0  0  0  0  0
    3.0555  -49.9851  -24.6484 C   0  0  0  0  0  0  0  0  0  0  0  0
    4.1161  -48.8670  -25.5040 Cl  0  0  0  0  0  0  0  0  0  0  0  0
    2.3420  -50.9465  -25.3139 C   0  0  0  0  0  0  0  0  0  0  0  0
    1.4946  -51.8397  -24.6211 C   0  0  0  0  0  0  0  0  0  0  0  0
    1.3495  -51.7844  -23.2559 C   0  0  0  0  0  0  0  0  0  0  0  0
    0.4299  -52.8433  -22.8424 C   0  0  0  0  0  0  0  0  0  0  0  0
   -0.0486  -53.2503  -21.6144 C   0  0  0  0  0  0  0  0  0  0  0  0
   -0.9295  -54.3374  -21.5153 C   0  0  0  0  0  0  0  0  0  0  0  0
   -1.3507  -55.0380  -22.6189 C   0  0  0  0  0  0  0  0  0  0  0  0
   -0.8710  -54.6282  -23.8344 C   0  0  0  0  0  0  0  0  0  0  0  0
    0.0143  -53.5379  -23.9499 C   0  0  0  0  0  0  0  0  0  0  0  0
    0.6463  -52.9291  -25.1302 C   0  0  0  0  0  0  0  0  0  0  0  0
    1.3679  -53.8556  -25.8828 O   0  0  0  0  0  0  0  0  0  0  0  0
    1.2237  -53.6746  -26.8534 H   0  0  0  0  0  0  0  0  0  0  0  0
   -0.4607  -52.2993  -25.9823 C   0  0  0  0  0  0  0  0  0  0  0  0
   -1.4651  -51.8456  -25.1502 F   0  0  0  0  0  0  0  0  0  0  0  0
   -1.0148  -53.2612  -26.8101 F   0  0  0  0  0  0  0  0  0  0  0  0
    0.0112  -51.2212  -26.7014 F   0  0  0  0  0  0  0  0  0  0  0  0
    1.3326  -50.2691  -16.9980 C   0  0  0  0  0  0  0  0  0  0  0  0
    0.2130  -51.3381  -16.7313 C   0  0  0  0  0  0  0  0  0  0  0  0
    1.8705  -49.4185  -12.8787 C   0  0  0  0  0  0  0  0  0  0  0  0
    1.4106  -50.5114  -13.8552 C   0  0  0  0  0  0  0  0  0  0  0  0
    1.2785  -51.7851  -13.0056 C   0  0  0  0  0  0  0  0  0  0  0  0
    2.1654  -52.7611  -13.3789 O   0  0  0  0  0  0  0  0  0  0  0  0
    3.4899  -52.4059  -13.3558 C   0  0  0  0  0  0  0  0  0  0  0  0
    3.7635  -51.0947  -14.0591 C   0  0  0  0  0  0  0  0  0  0  0  0
    2.5127  -50.7347  -14.7525 N   0  0  0  0  0  0  0  0  0  0  0  0
    2.5002  -50.6441  -16.1572 C   0  0  0  0  0  0  0  0  0  0  0  0
    3.6309  -50.9253  -16.7030 O   0  0  0  0  0  0  0  0  0  0  0  0
    0.8008  -49.0019  -16.7118 N   0  0  0  0  0  0  0  0  0  0  0  0
   -0.4312  -48.8893  -16.0385 C   0  0  0  0  0  0  0  0  0  0  0  0
    1.7056  -47.9769  -16.3272 C   0  0  0  0  0  0  0  0  0  0  0  0
 29 30  1  0  0  0
 30 31  1  0  0  0
 31 32  1  0  0  0
 32 33  1  0  0  0
 33 34  1  0  0  0
 34 35  1  0  0  0
 35 36  1  0  0  0
 36 37  2  0  0  0
 27 36  1  0  0  0
 27 28  1  0  0  0
 27 38  1  0  0  0
 38 39  1  0  0  0
 38 40  1  0  0  0
 27  1  1  0  0  0
  1  2  2  0  0  0
  2  3  1  0  0  0
  3  4  2  0  0  0
  4  5  1  0  0  0
  5  6  2  0  0  0
  4  7  1  0  0  0
  7  8  2  0  0  0
  8  9  1  0  0  0
  9 10  1  0  0  0
  9 11  2  0  0  0
 11 12  1  0  0  0
 12 13  2  0  0  0
 13 14  1  0  0  0
 14 15  2  0  0  0
 15 16  1  0  0  0
 16 17  2  0  0  0
 17 18  1  0  0  0
 18 19  2  0  0  0
 19 20  1  0  0  0
 20 21  1  0  0  0
 20 23  1  0  0  0
 23 24  1  0  0  0
 23 25  1  0  0  0
 23 26  1  0  0  0
 35 30  1  0  0  0
  6  1  1  0  0  0
 13  7  1  0  0  0
 19 14  1  0  0  0
 20 12  1  0  0  0
 21 22  1  0  0  0
M  END
> <minimizedAffinity>
-10.00223

> <CNNscore>
0.1443871558

> <CNNaffinity>
6.3943891525

> <CNN_VS>
0.9232676625

> <CNNaffinity_variance>
0.2583723664

$$$$
[H]OC1(C(F)(F)F)c2c([H])c([H])c([H])c([H])c2-c2c(-c3c([H])c([H])c([C@@](C(=O)N4C([H])([H])C([H])([H])OC([H])([H])[C@@]4([H])C([H])([H])[H])(N(C([H])([H])[H])C([H])([H])[H])C([H])([H])[H])c([H])c3[H])c([H])c(Cl)c([H])c21


 40 44  0  0  0  0  0  0  0  0999 V2000
    1.4815  -50.5375  -18.3485 C   0  0  0  0  0  0  0  0  0  0  0  0
    0.6907  -49.7806  -19.2323 C   0  0  0  0  0  0  0  0  0  0  0  0
    0.8454  -49.8376  -20.5794 C   0  0  0  0  0  0  0  0  0  0  0  0
    1.8143  -50.6680  -21.0807 C   0  0  0  0  0  0  0  0  0  0  0  0
    2.6026  -51.4181  -20.2362 C   0  0  0  0  0  0  0  0  0  0  0  0
    2.4422  -51.3576  -18.8703 C   0  0  0  0  0  0  0  0  0  0  0  0
    1.9678  -50.7960  -22.5224 C   0  0  0  0  0  0  0  0  0  0  0  0
    2.7945  -49.8727  -23.1923 C   0  0  0  0  0  0  0  0  0  0  0  0
    2.9535  -49.9033  -24.5515 C   0  0  0  0  0  0  0  0  0  0  0  0
    3.9914  -48.7421  -25.3770 Cl  0  0  0  0  0  0  0  0  0  0  0  0
    2.2734  -50.8723  -25.2405 C   0  0  0  0  0  0  0  0  0  0  0  0
    1.4441  -51.8001  -24.5718 C   0  0  0  0  0  0  0  0  0  0  0  0
    1.2838  -51.7721  -23.2074 C   0  0  0  0  0  0  0  0  0  0  0  0
    0.3897  -52.8627  -22.8214 C   0  0  0  0  0  0  0  0  0  0  0  0
   -0.0897  -53.3036  -21.6054 C   0  0  0  0  0  0  0  0  0  0  0  0
   -0.9413  -54.4160  -21.5339 C   0  0  0  0  0  0  0  0  0  0  0  0
   -1.3320  -55.1089  -22.6534 C   0  0  0  0  0  0  0  0  0  0  0  0
   -0.8516  -54.6654  -23.8568 C   0  0  0  0  0  0  0  0  0  0  0  0
    0.0044  -53.5494  -23.9447 C   0  0  0  0  0  0  0  0  0  0  0  0
    0.6312  -52.9035  -25.1079 C   0  0  0  0  0  0  0  0  0  0  0  0
    1.3856  -53.7968  -25.8684 O   0  0  0  0  0  0  0  0  0  0  0  0
    1.2461  -53.6033  -26.8373 H   0  0  0  0  0  0  0  0  0  0  0  0
   -0.4841  -52.2898  -25.9608 C   0  0  0  0  0  0  0  0  0  0  0  0
   -1.0623  -53.2828  -26.7267 F   0  0  0  0  0  0  0  0  0  0  0  0
    0.0555  -51.3589  -26.8326 F   0  0  0  0  0  0  0  0  0  0  0  0
   -1.4712  -51.7353  -25.1731 F   0  0  0  0  0  0  0  0  0  0  0  0
    1.1601  -50.3563  -16.9265 C   0  0  0  0  0  0  0  0  0  0  0  0
    0.7990  -48.8294  -16.8521 C   0  0  0  0  0  0  0  0  0  0  0  0
   -0.6561  -50.5938  -13.1019 C   0  0  0  0  0  0  0  0  0  0  0  0
   -0.7254  -49.8584  -14.4487 C   0  0  0  0  0  0  0  0  0  0  0  0
   -2.0428  -49.0681  -14.4120 C   0  0  0  0  0  0  0  0  0  0  0  0
   -2.9384  -49.4938  -15.3582 O   0  0  0  0  0  0  0  0  0  0  0  0
   -3.2731  -50.8230  -15.3094 C   0  0  0  0  0  0  0  0  0  0  0  0
   -2.0684  -51.7339  -15.2214 C   0  0  0  0  0  0  0  0  0  0  0  0
   -0.8908  -50.8765  -15.4516 N   0  0  0  0  0  0  0  0  0  0  0  0
   -0.0706  -51.1114  -16.5714 C   0  0  0  0  0  0  0  0  0  0  0  0
   -0.4778  -52.0782  -17.3162 O   0  0  0  0  0  0  0  0  0  0  0  0
    2.2456  -50.5887  -16.0674 N   0  0  0  0  0  0  0  0  0  0  0  0
    2.8915  -49.5068  -15.4378 C   0  0  0  0  0  0  0  0  0  0  0  0
    2.1883  -51.7297  -15.2235 C   0  0  0  0  0  0  0  0  0  0  0  0
 29 30  1  0  0  0
 30 31  1  0  0  0
 31 32  1  0  0  0
 32 33  1  0  0  0
 33 34  1  0  0  0
 34 35  1  0  0  0
 35 36  1  0  0  0
 36 37  2  0  0  0
 27 36  1  0  0  0
 27 28  1  0  0  0
 27 38  1  0  0  0
 38 39  1  0  0  0
 38 40  1  0  0  0
 27  1  1  0  0  0
  1  2  2  0  0  0
  2  3  1  0  0  0
  3  4  2  0  0  0
  4  5  1  0  0  0
  5  6  2  0  0  0
  4  7  1  0  0  0
  7  8  2  0  0  0
  8  9  1  0  0  0
  9 10  1  0  0  0
  9 11  2  0  0  0
 11 12  1  0  0  0
 12 13  2  0  0  0
 13 14  1  0  0  0
 14 15  2  0  0  0
 15 16  1  0  0  0
 16 17  2  0  0  0
 17 18  1  0  0  0
 18 19  2  0  0  0
 19 20  1  0  0  0
 20 21  1  0  0  0
 20 23  1  0  0  0
 23 24  1  0  0  0
 23 25  1  0  0  0
 23 26  1  0  0  0
 35 30  1  0  0  0
  6  1  1  0  0  0
 13  7  1  0  0  0
 19 14  1  0  0  0
 20 12  1  0  0  0
 21 22  1  0  0  0
M  END
> <minimizedAffinity>
-9.58130

> <CNNscore>
0.1370502859

> <CNNaffinity>
6.5720887184

> <CNN_VS>
0.9007066488

> <CNNaffinity_variance>
0.1959083229

$$$$
[H]OC1(C(F)(F)F)c2c([H])c([H])c([H])c([H])c2-c2c(-c3c([H])c([H])c([C@@](C(=O)N4C([H])([H])C([H])([H])OC([H])([H])[C@@]4([H])C([H])([H])[H])(N(C([H])([H])[H])C([H])([H])[H])C([H])([H])[H])c([H])c3[H])c([H])c(Cl)c([H])c21


 40 44  0  0  0  0  0  0  0  0999 V2000
    1.8019  -50.0243  -18.7347 C   0  0  0  0  0  0  0  0  0  0  0  0
    2.7693  -50.8832  -19.2879 C   0  0  0  0  0  0  0  0  0  0  0  0
    2.8430  -51.1361  -20.6193 C   0  0  0  0  0  0  0  0  0  0  0  0
    1.9320  -50.5245  -21.4413 C   0  0  0  0  0  0  0  0  0  0  0  0
    0.9742  -49.6807  -20.9239 C   0  0  0  0  0  0  0  0  0  0  0  0
    0.9031  -49.4264  -19.5728 C   0  0  0  0  0  0  0  0  0  0  0  0
    2.0194  -50.7290  -22.8797 C   0  0  0  0  0  0  0  0  0  0  0  0
    2.8150  -49.8449  -23.6345 C   0  0  0  0  0  0  0  0  0  0  0  0
    2.9117  -49.9478  -24.9961 C   0  0  0  0  0  0  0  0  0  0  0  0
    3.9113  -48.8350  -25.9284 Cl  0  0  0  0  0  0  0  0  0  0  0  0
    2.2003  -50.9500  -25.6010 C   0  0  0  0  0  0  0  0  0  0  0  0
    1.4020  -51.8386  -24.8469 C   0  0  0  0  0  0  0  0  0  0  0  0
    1.3043  -51.7381  -23.4801 C   0  0  0  0  0  0  0  0  0  0  0  0
    0.4283  -52.8041  -22.9964 C   0  0  0  0  0  0  0  0  0  0  0  0
    0.0048  -53.1786  -21.7382 C   0  0  0  0  0  0  0  0  0  0  0  0
   -0.8432  -54.2832  -21.5690 C   0  0  0  0  0  0  0  0  0  0  0  0
   -1.2850  -55.0332  -22.6313 C   0  0  0  0  0  0  0  0  0  0  0  0
   -0.8599  -54.6554  -23.8771 C   0  0  0  0  0  0  0  0  0  0  0  0
   -0.0083  -53.5481  -24.0630 C   0  0  0  0  0  0  0  0  0  0  0  0
    0.5649  -52.9665  -25.2862 C   0  0  0  0  0  0  0  0  0  0  0  0
    1.2833  -53.9010  -26.0319 O   0  0  0  0  0  0  0  0  0  0  0  0
    1.0998  -53.7586  -27.0023 H   0  0  0  0  0  0  0  0  0  0  0  0
   -0.5879  -52.3955  -26.1186 C   0  0  0  0  0  0  0  0  0  0  0  0
   -0.0800  -51.4865  -27.0257 F   0  0  0  0  0  0  0  0  0  0  0  0
   -1.4623  -51.7088  -25.2932 F   0  0  0  0  0  0  0  0  0  0  0  0
   -1.2326  -53.3861  -26.8294 F   0  0  0  0  0  0  0  0  0  0  0  0
    1.8858  -49.8609  -17.2771 C   0  0  0  0  0  0  0  0  0  0  0  0
    2.9535  -50.9408  -16.8755 C   0  0  0  0  0  0  0  0  0  0  0  0
    1.5526  -47.8300  -13.5695 C   0  0  0  0  0  0  0  0  0  0  0  0
    2.4816  -48.7348  -14.3928 C   0  0  0  0  0  0  0  0  0  0  0  0
    3.8233  -48.7276  -13.6435 C   0  0  0  0  0  0  0  0  0  0  0  0
    4.8318  -48.1570  -14.3755 O   0  0  0  0  0  0  0  0  0  0  0  0
    4.6091  -46.8720  -14.8000 C   0  0  0  0  0  0  0  0  0  0  0  0
    3.2600  -46.6922  -15.4607 C   0  0  0  0  0  0  0  0  0  0  0  0
    2.7079  -48.0484  -15.6368 N   0  0  0  0  0  0  0  0  0  0  0  0
    2.4613  -48.5332  -16.9351 C   0  0  0  0  0  0  0  0  0  0  0  0
    2.7866  -47.7064  -17.8657 O   0  0  0  0  0  0  0  0  0  0  0  0
    0.6905  -50.1603  -16.6048 N   0  0  0  0  0  0  0  0  0  0  0  0
   -0.2929  -49.1660  -16.4368 C   0  0  0  0  0  0  0  0  0  0  0  0
    0.1127  -51.4395  -16.8219 C   0  0  0  0  0  0  0  0  0  0  0  0
 29 30  1  0  0  0
 30 31  1  0  0  0
 31 32  1  0  0  0
 32 33  1  0  0  0
 33 34  1  0  0  0
 34 35  1  0  0  0
 35 36  1  0  0  0
 36 37  2  0  0  0
 27 36  1  0  0  0
 27 28  1  0  0  0
 27 38  1  0  0  0
 38 39  1  0  0  0
 38 40  1  0  0  0
 27  1  1  0  0  0
  1  2  2  0  0  0
  2  3  1  0  0  0
  3  4  2  0  0  0
  4  5  1  0  0  0
  5  6  2  0  0  0
  4  7  1  0  0  0
  7  8  2  0  0  0
  8  9  1  0  0  0
  9 10  1  0  0  0
  9 11  2  0  0  0
 11 12  1  0  0  0
 12 13  2  0  0  0
 13 14  1  0  0  0
 14 15  2  0  0  0
 15 16  1  0  0  0
 16 17  2  0  0  0
 17 18  1  0  0  0
 18 19  2  0  0  0
 19 20  1  0  0  0
 20 21  1  0  0  0
 20 23  1  0  0  0
 23 24  1  0  0  0
 23 25  1  0  0  0
 23 26  1  0  0  0
 35 30  1  0  0  0
  6  1  1  0  0  0
 13  7  1  0  0  0
 19 14  1  0  0  0
 20 12  1  0  0  0
 21 22  1  0  0  0
M  END
> <minimizedAffinity>
-9.31853

> <CNNscore>
0.1320061535

> <CNNaffinity>
6.2919125557

> <CNN_VS>
0.8305711746

> <CNNaffinity_variance>
0.2290382832

$$$$
[H]OC1(C(F)(F)F)c2c([H])c([H])c([H])c([H])c2-c2c(-c3c([H])c([H])c([C@@](C(=O)N4C([H])([H])C([H])([H])OC([H])([H])[C@@]4([H])C([H])([H])[H])(N(C([H])([H])[H])C([H])([H])[H])C([H])([H])[H])c([H])c3[H])c([H])c(Cl)c([H])c21


 40 44  0  0  0  0  0  0  0  0999 V2000
    4.2943  -49.3178  -21.3833 C   0  0  0  0  0  0  0  0  0  0  0  0
    3.0197  -48.7865  -21.6528 C   0  0  0  0  0  0  0  0  0  0  0  0
    1.9643  -49.5657  -22.0007 C   0  0  0  0  0  0  0  0  0  0  0  0
    2.1658  -50.9189  -22.0896 C   0  0  0  0  0  0  0  0  0  0  0  0
    3.4047  -51.4631  -21.8322 C   0  0  0  0  0  0  0  0  0  0  0  0
    4.4726  -50.6693  -21.4793 C   0  0  0  0  0  0  0  0  0  0  0  0
    1.0417  -51.7882  -22.4041 C   0  0  0  0  0  0  0  0  0  0  0  0
    0.2250  -52.2355  -21.3469 C   0  0  0  0  0  0  0  0  0  0  0  0
   -0.8240  -53.0889  -21.5595 C   0  0  0  0  0  0  0  0  0  0  0  0
   -1.8382  -53.6404  -20.2275 Cl  0  0  0  0  0  0  0  0  0  0  0  0
   -1.0509  -53.4945  -22.8480 C   0  0  0  0  0  0  0  0  0  0  0  0
   -0.2342  -53.0473  -23.9104 C   0  0  0  0  0  0  0  0  0  0  0  0
    0.8185  -52.1899  -23.6998 C   0  0  0  0  0  0  0  0  0  0  0  0
    1.4484  -51.9012  -24.9873 C   0  0  0  0  0  0  0  0  0  0  0  0
    2.5113  -51.1047  -25.3596 C   0  0  0  0  0  0  0  0  0  0  0  0
    2.8912  -51.0036  -26.7062 C   0  0  0  0  0  0  0  0  0  0  0  0
    2.2331  -51.6816  -27.7027 C   0  0  0  0  0  0  0  0  0  0  0  0
    1.1787  -52.4699  -27.3253 C   0  0  0  0  0  0  0  0  0  0  0  0
    0.7854  -52.5818  -25.9767 C   0  0  0  0  0  0  0  0  0  0  0  0
   -0.2957  -53.3558  -25.3480 C   0  0  0  0  0  0  0  0  0  0  0  0
   -1.5443  -53.0678  -25.8991 O   0  0  0  0  0  0  0  0  0  0  0  0
   -2.0677  -53.9127  -25.9871 H   0  0  0  0  0  0  0  0  0  0  0  0
    0.0309  -54.8429  -25.5206 C   0  0  0  0  0  0  0  0  0  0  0  0
    1.3669  -55.0456  -25.2362 F   0  0  0  0  0  0  0  0  0  0  0  0
   -0.1701  -55.2134  -26.8397 F   0  0  0  0  0  0  0  0  0  0  0  0
   -0.7080  -55.6229  -24.6558 F   0  0  0  0  0  0  0  0  0  0  0  0
    5.3086  -48.3232  -21.0086 C   0  0  0  0  0  0  0  0  0  0  0  0
    6.6284  -48.9513  -21.5837 C   0  0  0  0  0  0  0  0  0  0  0  0
    6.6456  -47.3620  -24.9163 C   0  0  0  0  0  0  0  0  0  0  0  0
    5.4302  -47.8710  -24.1267 C   0  0  0  0  0  0  0  0  0  0  0  0
    4.2576  -47.8348  -25.1193 C   0  0  0  0  0  0  0  0  0  0  0  0
    3.2828  -46.9448  -24.7499 O   0  0  0  0  0  0  0  0  0  0  0  0
    3.6928  -45.6478  -24.5747 C   0  0  0  0  0  0  0  0  0  0  0  0
    4.9253  -45.5289  -23.7054 C   0  0  0  0  0  0  0  0  0  0  0  0
    5.1517  -46.8689  -23.1327 N   0  0  0  0  0  0  0  0  0  0  0  0
    5.0806  -47.0479  -21.7383 C   0  0  0  0  0  0  0  0  0  0  0  0
    4.7859  -45.9740  -21.0940 O   0  0  0  0  0  0  0  0  0  0  0  0
    5.4673  -48.1723  -19.6220 N   0  0  0  0  0  0  0  0  0  0  0  0
    4.4812  -48.6588  -18.7417 C   0  0  0  0  0  0  0  0  0  0  0  0
    6.7732  -48.3270  -19.0855 C   0  0  0  0  0  0  0  0  0  0  0  0
 29 30  1  0  0  0
 30 31  1  0  0  0
 31 32  1  0  0  0
 32 33  1  0  0  0
 33 34  1  0  0  0
 34 35  1  0  0  0
 35 36  1  0  0  0
 36 37  2  0  0  0
 27 36  1  0  0  0
 27 28  1  0  0  0
 27 38  1  0  0  0
 38 39  1  0  0  0
 38 40  1  0  0  0
 27  1  1  0  0  0
  1  2  2  0  0  0
  2  3  1  0  0  0
  3  4  2  0  0  0
  4  5  1  0  0  0
  5  6  2  0  0  0
  4  7  1  0  0  0
  7  8  2  0  0  0
  8  9  1  0  0  0
  9 10  1  0  0  0
  9 11  2  0  0  0
 11 12  1  0  0  0
 12 13  2  0  0  0
 13 14  1  0  0  0
 14 15  2  0  0  0
 15 16  1  0  0  0
 16 17  2  0  0  0
 17 18  1  0  0  0
 18 19  2  0  0  0
 19 20  1  0  0  0
 20 21  1  0  0  0
 20 23  1  0  0  0
 23 24  1  0  0  0
 23 25  1  0  0  0
 23 26  1  0  0  0
 35 30  1  0  0  0
  6  1  1  0  0  0
 13  7  1  0  0  0
 19 14  1  0  0  0
 20 12  1  0  0  0
 21 22  1  0  0  0
M  END
> <minimizedAffinity>
-7.72377

> <CNNscore>
0.1257520765

> <CNNaffinity>
6.6722841263

> <CNN_VS>
0.8390535712

> <CNNaffinity_variance>
0.1920888126

$$$$
[H]c1nc(N([H])[H])c2c(-c3c([H])c([H])c(C(=O)N([H])[C@]([H])(c4c([H])c([H])c(C#N)c([H])c4[H])C([H])([H])C([H])(C([H])([H])[H])C([H])([H])[H])c([H])c3[H])c([H])n([H])c2n1


 36 39  0  0  0  0  0  0  0  0999 V2000
    0.5870  -51.5629  -19.2276 C   0  0  0  0  0  0  0  0  0  0  0  0
    0.9980  -52.7873  -19.6728 C   0  0  0  0  0  0  0  0  0  0  0  0
    1.2686  -53.0092  -21.0055 C   0  0  0  0  0  0  0  0  0  0  0  0
    1.1416  -52.0183  -21.9591 C   0  0  0  0  0  0  0  0  0  0  0  0
    0.7291  -50.7937  -21.5022 C   0  0  0  0  0  0  0  0  0  0  0  0
    0.4522  -50.5503  -20.1688 C   0  0  0  0  0  0  0  0  0  0  0  0
    1.4748  -52.2640  -23.3505 C   0  0  0  0  0  0  0  0  0  0  0  0
    2.5384  -51.6439  -24.0468 C   0  0  0  0  0  0  0  0  0  0  0  0
    2.5370  -52.0631  -25.3177 N   0  0  0  0  0  0  0  0  0  0  0  0
    1.5416  -52.9299  -25.5340 C   0  0  0  0  0  0  0  0  0  0  0  0
    1.1021  -53.6388  -26.5914 N   0  0  0  0  0  0  0  0  0  0  0  0
    0.0534  -54.4736  -26.5444 C   0  0  0  0  0  0  0  0  0  0  0  0
   -0.5842  -54.6017  -25.3756 N   0  0  0  0  0  0  0  0  0  0  0  0
   -0.1856  -53.9096  -24.2703 C   0  0  0  0  0  0  0  0  0  0  0  0
   -0.8716  -54.0892  -23.0327 N   0  0  0  0  0  0  0  0  0  0  0  0
    0.8786  -53.0569  -24.3076 C   0  0  0  0  0  0  0  0  0  0  0  0
    3.2044  -51.7736  -26.0598 H   0  0  0  0  0  0  0  0  0  0  0  0
   -0.3744  -54.6198  -22.2877 H   0  0  0  0  0  0  0  0  0  0  0  0
   -1.8215  -53.7344  -22.8182 H   0  0  0  0  0  0  0  0  0  0  0  0
    1.1968  -50.6443  -16.9479 N   0  0  0  0  0  0  0  0  0  0  0  0
    0.2869  -51.2696  -17.8353 C   0  0  0  0  0  0  0  0  0  0  0  0
   -0.8400  -51.5859  -17.3887 O   0  0  0  0  0  0  0  0  0  0  0  0
    2.1345  -50.3792  -17.3152 H   0  0  0  0  0  0  0  0  0  0  0  0
    0.8405  -50.3726  -15.5491 C   0  0  0  0  0  0  0  0  0  0  0  0
    1.4565  -49.0595  -15.2011 C   0  0  0  0  0  0  0  0  0  0  0  0
    0.7903  -47.8605  -15.3044 C   0  0  0  0  0  0  0  0  0  0  0  0
    1.3778  -46.6592  -14.9789 C   0  0  0  0  0  0  0  0  0  0  0  0
    2.6789  -46.6711  -14.5353 C   0  0  0  0  0  0  0  0  0  0  0  0
    3.3550  -47.8729  -14.4290 C   0  0  0  0  0  0  0  0  0  0  0  0
    2.7846  -49.0875  -14.7500 C   0  0  0  0  0  0  0  0  0  0  0  0
    3.2890  -45.4084  -14.1957 C   0  0  0  0  0  0  0  0  0  0  0  0
    3.7747  -44.3830  -13.9139 N   0  0  0  0  0  0  0  0  0  0  0  0
    1.4035  -51.4953  -14.7338 C   0  0  0  0  0  0  0  0  0  0  0  0
   -0.9408  -51.6408  -13.8248 C   0  0  0  0  0  0  0  0  0  0  0  0
    0.3411  -52.3493  -14.0922 C   0  0  0  0  0  0  0  0  0  0  0  0
    0.9384  -52.8594  -12.7742 C   0  0  0  0  0  0  0  0  0  0  0  0
 34 35  1  0  0  0
 35 36  1  0  0  0
 35 33  1  0  0  0
 33 24  1  0  0  0
 24 20  1  0  0  0
 20 21  1  0  0  0
 21 22  2  0  0  0
 21  1  1  0  0  0
  1  2  2  0  0  0
  2  3  1  0  0  0
  3  4  2  0  0  0
  4  5  1  0  0  0
  5  6  2  0  0  0
  4  7  1  0  0  0
  7  8  2  0  0  0
  8  9  1  0  0  0
  9 10  1  0  0  0
 10 11  2  0  0  0
 11 12  1  0  0  0
 12 13  2  0  0  0
 13 14  1  0  0  0
 14 15  1  0  0  0
 14 16  2  0  0  0
 24 25  1  0  0  0
 25 26  2  0  0  0
 26 27  1  0  0  0
 27 28  2  0  0  0
 28 29  1  0  0  0
 29 30  2  0  0  0
 28 31  1  0  0  0
 31 32  3  0  0  0
  6  1  1  0  0  0
 16  7  1  0  0  0
 30 25  1  0  0  0
 16 10  1  0  0  0
 20 23  1  0  0  0
  9 17  1  0  0  0
 15 18  1  0  0  0
 15 19  1  0  0  0
M  END
> <minimizedAffinity>
-6.42926

> <CNNscore>
0.2916967273

> <CNNaffinity>
6.2881493568

> <CNN_VS>
1.8342325687

> <CNNaffinity_variance>
0.7363712788

$$$$
[H]c1nc(N([H])[H])c2c(-c3c([H])c([H])c(C(=O)N([H])[C@]([H])(c4c([H])c([H])c(C#N)c([H])c4[H])C([H])([H])C([H])(C([H])([H])[H])C([H])([H])[H])c([H])c3[H])c([H])n([H])c2n1


 36 39  0  0  0  0  0  0  0  0999 V2000
    0.0295  -52.1152  -18.1793 C   0  0  0  0  0  0  0  0  0  0  0  0
   -1.1049  -52.8149  -18.4786 C   0  0  0  0  0  0  0  0  0  0  0  0
   -1.3297  -53.3027  -19.7476 C   0  0  0  0  0  0  0  0  0  0  0  0
   -0.4318  -53.1152  -20.7799 C   0  0  0  0  0  0  0  0  0  0  0  0
    0.7032  -52.4124  -20.4691 C   0  0  0  0  0  0  0  0  0  0  0  0
    0.9478  -51.9141  -19.2020 C   0  0  0  0  0  0  0  0  0  0  0  0
   -0.6699  -53.6765  -22.0974 C   0  0  0  0  0  0  0  0  0  0  0  0
   -1.3085  -54.9144  -22.3433 C   0  0  0  0  0  0  0  0  0  0  0  0
   -1.3255  -55.1475  -23.6609 N   0  0  0  0  0  0  0  0  0  0  0  0
   -0.7405  -54.1485  -24.3307 C   0  0  0  0  0  0  0  0  0  0  0  0
   -0.4996  -53.8771  -25.6276 N   0  0  0  0  0  0  0  0  0  0  0  0
    0.1158  -52.7642  -26.0539 C   0  0  0  0  0  0  0  0  0  0  0  0
    0.5078  -51.8807  -25.1295 N   0  0  0  0  0  0  0  0  0  0  0  0
    0.2918  -52.1006  -23.8010 C   0  0  0  0  0  0  0  0  0  0  0  0
    0.6992  -51.1256  -22.8430 N   0  0  0  0  0  0  0  0  0  0  0  0
   -0.3317  -53.2297  -23.3568 C   0  0  0  0  0  0  0  0  0  0  0  0
   -1.7303  -55.9812  -24.1311 H   0  0  0  0  0  0  0  0  0  0  0  0
   -0.0518  -50.5722  -22.3809 H   0  0  0  0  0  0  0  0  0  0  0  0
    1.6796  -50.9260  -22.5723 H   0  0  0  0  0  0  0  0  0  0  0  0
    0.9939  -50.3496  -16.6413 N   0  0  0  0  0  0  0  0  0  0  0  0
    0.3209  -51.5766  -16.8604 C   0  0  0  0  0  0  0  0  0  0  0  0
   -0.0418  -52.2310  -15.8555 O   0  0  0  0  0  0  0  0  0  0  0  0
    1.2966  -49.8022  -17.4739 H   0  0  0  0  0  0  0  0  0  0  0  0
    1.2631  -49.8535  -15.2853 C   0  0  0  0  0  0  0  0  0  0  0  0
    0.4354  -48.6251  -15.1102 C   0  0  0  0  0  0  0  0  0  0  0  0
    0.9497  -47.4197  -14.6924 C   0  0  0  0  0  0  0  0  0  0  0  0
    0.1679  -46.2978  -14.5362 C   0  0  0  0  0  0  0  0  0  0  0  0
   -1.1753  -46.3983  -14.8112 C   0  0  0  0  0  0  0  0  0  0  0  0
   -1.6995  -47.6071  -15.2318 C   0  0  0  0  0  0  0  0  0  0  0  0
   -0.9334  -48.7430  -15.3945 C   0  0  0  0  0  0  0  0  0  0  0  0
   -1.9894  -45.2186  -14.6455 C   0  0  0  0  0  0  0  0  0  0  0  0
   -2.6514  -44.2630  -14.5222 N   0  0  0  0  0  0  0  0  0  0  0  0
    2.7301  -49.5618  -15.2150 C   0  0  0  0  0  0  0  0  0  0  0  0
    3.9574  -51.7346  -15.5554 C   0  0  0  0  0  0  0  0  0  0  0  0
    3.5255  -50.6814  -14.5957 C   0  0  0  0  0  0  0  0  0  0  0  0
    2.6280  -51.2987  -13.5151 C   0  0  0  0  0  0  0  0  0  0  0  0
 34 35  1  0  0  0
 35 36  1  0  0  0
 35 33  1  0  0  0
 33 24  1  0  0  0
 24 20  1  0  0  0
 20 21  1  0  0  0
 21 22  2  0  0  0
 21  1  1  0  0  0
  1  2  2  0  0  0
  2  3  1  0  0  0
  3  4  2  0  0  0
  4  5  1  0  0  0
  5  6  2  0  0  0
  4  7  1  0  0  0
  7  8  2  0  0  0
  8  9  1  0  0  0
  9 10  1  0  0  0
 10 11  2  0  0  0
 11 12  1  0  0  0
 12 13  2  0  0  0
 13 14  1  0  0  0
 14 15  1  0  0  0
 14 16  2  0  0  0
 24 25  1  0  0  0
 25 26  2  0  0  0
 26 27  1  0  0  0
 27 28  2  0  0  0
 28 29  1  0  0  0
 29 30  2  0  0  0
 28 31  1  0  0  0
 31 32  3  0  0  0
  6  1  1  0  0  0
 16  7  1  0  0  0
 30 25  1  0  0  0
 16 10  1  0  0  0
 20 23  1  0  0  0
  9 17  1  0  0  0
 15 18  1  0  0  0
 15 19  1  0  0  0
M  END
> <minimizedAffinity>
-7.10836

> <CNNscore>
0.2332484573

> <CNNaffinity>
6.2180685997

> <CNN_VS>
1.4503549337

> <CNNaffinity_variance>
0.0796193108

$$$$
[H]c1nc(N([H])[H])c2c(-c3c([H])c([H])c(C(=O)N([H])[C@]([H])(c4c([H])c([H])c(C#N)c([H])c4[H])C([H])([H])C([H])(C([H])([H])[H])C([H])([H])[H])c([H])c3[H])c([H])n([H])c2n1


 36 39  0  0  0  0  0  0  0  0999 V2000
    0.3906  -51.6044  -19.4319 C   0  0  0  0  0  0  0  0  0  0  0  0
    0.6692  -52.7612  -20.1029 C   0  0  0  0  0  0  0  0  0  0  0  0
    0.8874  -52.7633  -21.4635 C   0  0  0  0  0  0  0  0  0  0  0  0
    0.8379  -51.6092  -22.2204 C   0  0  0  0  0  0  0  0  0  0  0  0
    0.5581  -50.4541  -21.5377 C   0  0  0  0  0  0  0  0  0  0  0  0
    0.3358  -50.4305  -20.1725 C   0  0  0  0  0  0  0  0  0  0  0  0
    1.1148  -51.6299  -23.6454 C   0  0  0  0  0  0  0  0  0  0  0  0
    1.9964  -50.7447  -24.3085 C   0  0  0  0  0  0  0  0  0  0  0  0
    1.9852  -51.0117  -25.6198 N   0  0  0  0  0  0  0  0  0  0  0  0
    1.1536  -52.0224  -25.8947 C   0  0  0  0  0  0  0  0  0  0  0  0
    0.7806  -52.6794  -27.0097 N   0  0  0  0  0  0  0  0  0  0  0  0
   -0.0912  -53.6986  -27.0172 C   0  0  0  0  0  0  0  0  0  0  0  0
   -0.6132  -54.0756  -25.8449 N   0  0  0  0  0  0  0  0  0  0  0  0
   -0.2740  -53.4482  -24.6825 C   0  0  0  0  0  0  0  0  0  0  0  0
   -0.8292  -53.8923  -23.4460 N   0  0  0  0  0  0  0  0  0  0  0  0
    0.6104  -52.4097  -24.6640 C   0  0  0  0  0  0  0  0  0  0  0  0
    2.5359  -50.5192  -26.3507 H   0  0  0  0  0  0  0  0  0  0  0  0
   -0.1934  -54.3984  -22.7954 H   0  0  0  0  0  0  0  0  0  0  0  0
   -1.8112  -53.7512  -23.1462 H   0  0  0  0  0  0  0  0  0  0  0  0
    0.4266  -50.4006  -17.2042 N   0  0  0  0  0  0  0  0  0  0  0  0
    0.1514  -51.5404  -17.9990 C   0  0  0  0  0  0  0  0  0  0  0  0
   -0.3258  -52.5485  -17.4284 O   0  0  0  0  0  0  0  0  0  0  0  0
    0.8228  -49.5602  -17.6746 H   0  0  0  0  0  0  0  0  0  0  0  0
    0.1658  -50.3918  -15.7588 C   0  0  0  0  0  0  0  0  0  0  0  0
   -0.4362  -49.0641  -15.4438 C   0  0  0  0  0  0  0  0  0  0  0  0
   -1.7926  -48.8393  -15.4016 C   0  0  0  0  0  0  0  0  0  0  0  0
   -2.3277  -47.6054  -15.1097 C   0  0  0  0  0  0  0  0  0  0  0  0
   -1.4645  -46.5670  -14.8525 C   0  0  0  0  0  0  0  0  0  0  0  0
   -0.0994  -46.7854  -14.8930 C   0  0  0  0  0  0  0  0  0  0  0  0
    0.4571  -48.0141  -15.1835 C   0  0  0  0  0  0  0  0  0  0  0  0
   -2.0318  -45.2759  -14.5471 C   0  0  0  0  0  0  0  0  0  0  0  0
   -2.4978  -44.2346  -14.2917 N   0  0  0  0  0  0  0  0  0  0  0  0
    1.4858  -50.5898  -15.0802 C   0  0  0  0  0  0  0  0  0  0  0  0
    0.2099  -52.3372  -13.7912 C   0  0  0  0  0  0  0  0  0  0  0  0
    1.5387  -51.8435  -14.2465 C   0  0  0  0  0  0  0  0  0  0  0  0
    2.4157  -51.5141  -13.0313 C   0  0  0  0  0  0  0  0  0  0  0  0
 34 35  1  0  0  0
 35 36  1  0  0  0
 35 33  1  0  0  0
 33 24  1  0  0  0
 24 20  1  0  0  0
 20 21  1  0  0  0
 21 22  2  0  0  0
 21  1  1  0  0  0
  1  2  2  0  0  0
  2  3  1  0  0  0
  3  4  2  0  0  0
  4  5  1  0  0  0
  5  6  2  0  0  0
  4  7  1  0  0  0
  7  8  2  0  0  0
  8  9  1  0  0  0
  9 10  1  0  0  0
 10 11  2  0  0  0
 11 12  1  0  0  0
 12 13  2  0  0  0
 13 14  1  0  0  0
 14 15  1  0  0  0
 14 16  2  0  0  0
 24 25  1  0  0  0
 25 26  2  0  0  0
 26 27  1  0  0  0
 27 28  2  0  0  0
 28 29  1  0  0  0
 29 30  2  0  0  0
 28 31  1  0  0  0
 31 32  3  0  0  0
  6  1  1  0  0  0
 16  7  1  0  0  0
 30 25  1  0  0  0
 16 10  1  0  0  0
 20 23  1  0  0  0
  9 17  1  0  0  0
 15 18  1  0  0  0
 15 19  1  0  0  0
M  END
> <minimizedAffinity>
-7.21750

> <CNNscore>
0.1398356110

> <CNNaffinity>
6.1095976830

> <CNN_VS>
0.8543393016

> <CNNaffinity_variance>
0.2442110032

$$$$
[H]c1nc(N([H])[H])c2c(-c3c([H])c([H])c(C(=O)N([H])[C@]([H])(c4c([H])c([H])c(C#N)c([H])c4[H])C([H])([H])C([H])(C([H])([H])[H])C([H])([H])[H])c([H])c3[H])c([H])n([H])c2n1


 36 39  0  0  0  0  0  0  0  0999 V2000
    0.4787  -51.1378  -20.3484 C   0  0  0  0  0  0  0  0  0  0  0  0
   -0.7617  -51.4210  -20.8457 C   0  0  0  0  0  0  0  0  0  0  0  0
   -0.9186  -52.1767  -21.9872 C   0  0  0  0  0  0  0  0  0  0  0  0
    0.1567  -52.6867  -22.6879 C   0  0  0  0  0  0  0  0  0  0  0  0
    1.3966  -52.3973  -22.1806 C   0  0  0  0  0  0  0  0  0  0  0  0
    1.5757  -51.6405  -21.0365 C   0  0  0  0  0  0  0  0  0  0  0  0
   -0.0350  -53.5172  -23.8632 C   0  0  0  0  0  0  0  0  0  0  0  0
   -0.7048  -54.7629  -23.8699 C   0  0  0  0  0  0  0  0  0  0  0  0
   -0.6639  -55.2787  -25.1040 N   0  0  0  0  0  0  0  0  0  0  0  0
   -0.0101  -54.4654  -25.9406 C   0  0  0  0  0  0  0  0  0  0  0  0
    0.3055  -54.4908  -27.2496 N   0  0  0  0  0  0  0  0  0  0  0  0
    0.9816  -53.5138  -27.8719 C   0  0  0  0  0  0  0  0  0  0  0  0
    1.3582  -52.4589  -27.1410 N   0  0  0  0  0  0  0  0  0  0  0  0
    1.0678  -52.3769  -25.8111 C   0  0  0  0  0  0  0  0  0  0  0  0
    1.4614  -51.2258  -25.0665 N   0  0  0  0  0  0  0  0  0  0  0  0
    0.3822  -53.3657  -25.1682 C   0  0  0  0  0  0  0  0  0  0  0  0
   -1.0744  -56.1852  -25.4039 H   0  0  0  0  0  0  0  0  0  0  0  0
    0.7087  -50.5665  -24.7795 H   0  0  0  0  0  0  0  0  0  0  0  0
    2.4335  -50.9957  -24.7902 H   0  0  0  0  0  0  0  0  0  0  0  0
    0.2109  -50.6953  -17.8695 N   0  0  0  0  0  0  0  0  0  0  0  0
    0.7062  -50.3465  -19.1499 C   0  0  0  0  0  0  0  0  0  0  0  0
    1.3785  -49.2940  -19.2489 O   0  0  0  0  0  0  0  0  0  0  0  0
   -0.3480  -51.5698  -17.7827 H   0  0  0  0  0  0  0  0  0  0  0  0
    0.4707  -49.8571  -16.6917 C   0  0  0  0  0  0  0  0  0  0  0  0
    1.3994  -50.6295  -15.8169 C   0  0  0  0  0  0  0  0  0  0  0  0
    0.9770  -51.3961  -14.7557 C   0  0  0  0  0  0  0  0  0  0  0  0
    1.8512  -52.1008  -13.9599 C   0  0  0  0  0  0  0  0  0  0  0  0
    3.1938  -52.0279  -14.2462 C   0  0  0  0  0  0  0  0  0  0  0  0
    3.6259  -51.2592  -15.3116 C   0  0  0  0  0  0  0  0  0  0  0  0
    2.7664  -50.5455  -16.1213 C   0  0  0  0  0  0  0  0  0  0  0  0
    4.1050  -52.7689  -13.4081 C   0  0  0  0  0  0  0  0  0  0  0  0
    4.8520  -53.3638  -12.7336 N   0  0  0  0  0  0  0  0  0  0  0  0
   -0.8526  -49.6123  -16.0350 C   0  0  0  0  0  0  0  0  0  0  0  0
   -0.3346  -48.0528  -14.1264 C   0  0  0  0  0  0  0  0  0  0  0  0
   -0.9778  -48.2263  -15.4579 C   0  0  0  0  0  0  0  0  0  0  0  0
   -2.4814  -47.9403  -15.3507 C   0  0  0  0  0  0  0  0  0  0  0  0
 34 35  1  0  0  0
 35 36  1  0  0  0
 35 33  1  0  0  0
 33 24  1  0  0  0
 24 20  1  0  0  0
 20 21  1  0  0  0
 21 22  2  0  0  0
 21  1  1  0  0  0
  1  2  2  0  0  0
  2  3  1  0  0  0
  3  4  2  0  0  0
  4  5  1  0  0  0
  5  6  2  0  0  0
  4  7  1  0  0  0
  7  8  2  0  0  0
  8  9  1  0  0  0
  9 10  1  0  0  0
 10 11  2  0  0  0
 11 12  1  0  0  0
 12 13  2  0  0  0
 13 14  1  0  0  0
 14 15  1  0  0  0
 14 16  2  0  0  0
 24 25  1  0  0  0
 25 26  2  0  0  0
 26 27  1  0  0  0
 27 28  2  0  0  0
 28 29  1  0  0  0
 29 30  2  0  0  0
 28 31  1  0  0  0
 31 32  3  0  0  0
  6  1  1  0  0  0
 16  7  1  0  0  0
 30 25  1  0  0  0
 16 10  1  0  0  0
 20 23  1  0  0  0
  9 17  1  0  0  0
 15 18  1  0  0  0
 15 19  1  0  0  0
M  END
> <minimizedAffinity>
-8.07335

> <CNNscore>
0.1373255402

> <CNNaffinity>
6.1453666687

> <CNN_VS>
0.8439158201

> <CNNaffinity_variance>
0.1144653782

$$$$
[H]c1nc(N([H])[H])c2c(-c3c([H])c([H])c(C(=O)N([H])[C@]([H])(c4c([H])c([H])c(C#N)c([H])c4[H])C([H])([H])C([H])(C([H])([H])[H])C([H])([H])[H])c([H])c3[H])c([H])n([H])c2n1


 36 39  0  0  0  0  0  0  0  0999 V2000
    1.7399  -51.9895  -21.7161 C   0  0  0  0  0  0  0  0  0  0  0  0
    0.9630  -52.9460  -22.3058 C   0  0  0  0  0  0  0  0  0  0  0  0
    0.9471  -53.1103  -23.6738 C   0  0  0  0  0  0  0  0  0  0  0  0
    1.7069  -52.3267  -24.5199 C   0  0  0  0  0  0  0  0  0  0  0  0
    2.4831  -51.3704  -23.9184 C   0  0  0  0  0  0  0  0  0  0  0  0
    2.5132  -51.1891  -22.5472 C   0  0  0  0  0  0  0  0  0  0  0  0
    1.7072  -52.5476  -25.9547 C   0  0  0  0  0  0  0  0  0  0  0  0
    2.8648  -52.7712  -26.7361 C   0  0  0  0  0  0  0  0  0  0  0  0
    2.5123  -52.8936  -28.0212 N   0  0  0  0  0  0  0  0  0  0  0  0
    1.1887  -52.7689  -28.1678 C   0  0  0  0  0  0  0  0  0  0  0  0
    0.3318  -52.8134  -29.2058 N   0  0  0  0  0  0  0  0  0  0  0  0
   -0.9954  -52.6638  -29.0830 C   0  0  0  0  0  0  0  0  0  0  0  0
   -1.4845  -52.4598  -27.8550 N   0  0  0  0  0  0  0  0  0  0  0  0
   -0.6662  -52.4045  -26.7654 C   0  0  0  0  0  0  0  0  0  0  0  0
   -1.2230  -52.2115  -25.4665 N   0  0  0  0  0  0  0  0  0  0  0  0
    0.6850  -52.5538  -26.8794 C   0  0  0  0  0  0  0  0  0  0  0  0
    3.1550  -53.0628  -28.8201 H   0  0  0  0  0  0  0  0  0  0  0  0
   -1.2232  -53.0307  -24.8242 H   0  0  0  0  0  0  0  0  0  0  0  0
   -1.6254  -51.3237  -25.1140 H   0  0  0  0  0  0  0  0  0  0  0  0
    0.7561  -51.1668  -19.5325 N   0  0  0  0  0  0  0  0  0  0  0  0
    1.7976  -51.7694  -20.2799 C   0  0  0  0  0  0  0  0  0  0  0  0
    2.8254  -52.1317  -19.6619 O   0  0  0  0  0  0  0  0  0  0  0  0
   -0.1003  -50.8647  -20.0423 H   0  0  0  0  0  0  0  0  0  0  0  0
    0.8685  -50.9680  -18.0816 C   0  0  0  0  0  0  0  0  0  0  0  0
   -0.4036  -51.4675  -17.4844 C   0  0  0  0  0  0  0  0  0  0  0  0
   -1.0618  -52.5883  -17.9349 C   0  0  0  0  0  0  0  0  0  0  0  0
   -2.2359  -53.0319  -17.3700 C   0  0  0  0  0  0  0  0  0  0  0  0
   -2.7602  -52.3201  -16.3174 C   0  0  0  0  0  0  0  0  0  0  0  0
   -2.1040  -51.1922  -15.8591 C   0  0  0  0  0  0  0  0  0  0  0  0
   -0.9266  -50.7309  -16.4111 C   0  0  0  0  0  0  0  0  0  0  0  0
   -3.9912  -52.7903  -15.7297 C   0  0  0  0  0  0  0  0  0  0  0  0
   -4.9861  -53.1660  -15.2440 N   0  0  0  0  0  0  0  0  0  0  0  0
    1.0591  -49.4994  -17.8600 C   0  0  0  0  0  0  0  0  0  0  0  0
    3.3882  -48.8075  -18.5227 C   0  0  0  0  0  0  0  0  0  0  0  0
    2.4540  -49.1459  -17.4139 C   0  0  0  0  0  0  0  0  0  0  0  0
    2.9800  -50.3643  -16.6439 C   0  0  0  0  0  0  0  0  0  0  0  0
 34 35  1  0  0  0
 35 36  1  0  0  0
 35 33  1  0  0  0
 33 24  1  0  0  0
 24 20  1  0  0  0
 20 21  1  0  0  0
 21 22  2  0  0  0
 21  1  1  0  0  0
  1  2  2  0  0  0
  2  3  1  0  0  0
  3  4  2  0  0  0
  4  5  1  0  0  0
  5  6  2  0  0  0
  4  7  1  0  0  0
  7  8  2  0  0  0
  8  9  1  0  0  0
  9 10  1  0  0  0
 10 11  2  0  0  0
 11 12  1  0  0  0
 12 13  2  0  0  0
 13 14  1  0  0  0
 14 15  1  0  0  0
 14 16  2  0  0  0
 24 25  1  0  0  0
 25 26  2  0  0  0
 26 27  1  0  0  0
 27 28  2  0  0  0
 28 29  1  0  0  0
 29 30  2  0  0  0
 28 31  1  0  0  0
 31 32  3  0  0  0
  6  1  1  0  0  0
 16  7  1  0  0  0
 30 25  1  0  0  0
 16 10  1  0  0  0
 20 23  1  0  0  0
  9 17  1  0  0  0
 15 18  1  0  0  0
 15 19  1  0  0  0
M  END
> <minimizedAffinity>
-8.52647

> <CNNscore>
0.1370411366

> <CNNaffinity>
6.1725249290

> <CNN_VS>
0.8458898067

> <CNNaffinity_variance>
0.1998305172

$$$$
[H]c1nc(N([H])[H])c2c(-c3c([H])c([H])c(C(=O)N([H])[C@]([H])(c4c([H])c([H])c(C#N)c([H])c4[H])C([H])([H])C([H])(C([H])([H])[H])C([H])([H])[H])c([H])c3[H])c([H])n([H])c2n1


 36 39  0  0  0  0  0  0  0  0999 V2000
    0.5470  -51.6838  -19.3813 C   0  0  0  0  0  0  0  0  0  0  0  0
    0.0079  -51.0667  -20.4744 C   0  0  0  0  0  0  0  0  0  0  0  0
   -0.2992  -51.7749  -21.6159 C   0  0  0  0  0  0  0  0  0  0  0  0
   -0.0827  -53.1348  -21.7210 C   0  0  0  0  0  0  0  0  0  0  0  0
    0.4579  -53.7444  -20.6188 C   0  0  0  0  0  0  0  0  0  0  0  0
    0.7736  -53.0518  -19.4637 C   0  0  0  0  0  0  0  0  0  0  0  0
   -0.4552  -53.8671  -22.9179 C   0  0  0  0  0  0  0  0  0  0  0  0
   -1.4166  -54.9037  -22.9627 C   0  0  0  0  0  0  0  0  0  0  0  0
   -1.4838  -55.3888  -24.2080 N   0  0  0  0  0  0  0  0  0  0  0  0
   -0.6312  -54.7501  -25.0166 C   0  0  0  0  0  0  0  0  0  0  0  0
   -0.3080  -54.8285  -26.3217 N   0  0  0  0  0  0  0  0  0  0  0  0
    0.6034  -54.0412  -26.9119 C   0  0  0  0  0  0  0  0  0  0  0  0
    1.2197  -53.1297  -26.1515 N   0  0  0  0  0  0  0  0  0  0  0  0
    0.9346  -53.0033  -24.8239 C   0  0  0  0  0  0  0  0  0  0  0  0
    1.5913  -52.0033  -24.0472 N   0  0  0  0  0  0  0  0  0  0  0  0
    0.0107  -53.8000  -24.2134 C   0  0  0  0  0  0  0  0  0  0  0  0
   -2.1035  -56.1566  -24.5346 H   0  0  0  0  0  0  0  0  0  0  0  0
    1.0233  -51.1814  -23.7545 H   0  0  0  0  0  0  0  0  0  0  0  0
    2.5847  -52.0308  -23.7530 H   0  0  0  0  0  0  0  0  0  0  0  0
    2.1950  -50.9673  -17.5971 N   0  0  0  0  0  0  0  0  0  0  0  0
    0.8914  -50.9896  -18.1509 C   0  0  0  0  0  0  0  0  0  0  0  0
   -0.0127  -50.3736  -17.5406 O   0  0  0  0  0  0  0  0  0  0  0  0
    2.9497  -51.4776  -18.1016 H   0  0  0  0  0  0  0  0  0  0  0  0
    2.4864  -50.2497  -16.3491 C   0  0  0  0  0  0  0  0  0  0  0  0
    3.0637  -48.9317  -16.7417 C   0  0  0  0  0  0  0  0  0  0  0  0
    2.7564  -47.7515  -16.1054 C   0  0  0  0  0  0  0  0  0  0  0  0
    3.2998  -46.5452  -16.4843 C   0  0  0  0  0  0  0  0  0  0  0  0
    4.1812  -46.5322  -17.5392 C   0  0  0  0  0  0  0  0  0  0  0  0
    4.4949  -47.7148  -18.1839 C   0  0  0  0  0  0  0  0  0  0  0  0
    3.9614  -48.9341  -17.8198 C   0  0  0  0  0  0  0  0  0  0  0  0
    4.7473  -45.2643  -17.9316 C   0  0  0  0  0  0  0  0  0  0  0  0
    5.2083  -44.2348  -18.2387 N   0  0  0  0  0  0  0  0  0  0  0  0
    3.4626  -51.0898  -15.5853 C   0  0  0  0  0  0  0  0  0  0  0  0
    1.3882  -51.5219  -14.2239 C   0  0  0  0  0  0  0  0  0  0  0  0
    2.8415  -51.7903  -14.4049 C   0  0  0  0  0  0  0  0  0  0  0  0
    3.6161  -51.3163  -13.1682 C   0  0  0  0  0  0  0  0  0  0  0  0
 34 35  1  0  0  0
 35 36  1  0  0  0
 35 33  1  0  0  0
 33 24  1  0  0  0
 24 20  1  0  0  0
 20 21  1  0  0  0
 21 22  2  0  0  0
 21  1  1  0  0  0
  1  2  2  0  0  0
  2  3  1  0  0  0
  3  4  2  0  0  0
  4  5  1  0  0  0
  5  6  2  0  0  0
  4  7  1  0  0  0
  7  8  2  0  0  0
  8  9  1  0  0  0
  9 10  1  0  0  0
 10 11  2  0  0  0
 11 12  1  0  0  0
 12 13  2  0  0  0
 13 14  1  0  0  0
 14 15  1  0  0  0
 14 16  2  0  0  0
 24 25  1  0  0  0
 25 26  2  0  0  0
 26 27  1  0  0  0
 27 28  2  0  0  0
 28 29  1  0  0  0
 29 30  2  0  0  0
 28 31  1  0  0  0
 31 32  3  0  0  0
  6  1  1  0  0  0
 16  7  1  0  0  0
 30 25  1  0  0  0
 16 10  1  0  0  0
 20 23  1  0  0  0
  9 17  1  0  0  0
 15 18  1  0  0  0
 15 19  1  0  0  0
M  END
> <minimizedAffinity>
-7.12295

> <CNNscore>
0.1354162842

> <CNNaffinity>
6.1794238091

> <CNN_VS>
0.8367946148

> <CNNaffinity_variance>
0.1471660435

$$$$
[H]c1nc(N([H])[H])c2c(-c3c([H])c([H])c(C(=O)N([H])[C@]([H])(c4c([H])c([H])c(C#N)c([H])c4[H])C([H])([H])C([H])(C([H])([H])[H])C([H])([H])[H])c([H])c3[H])c([H])n([H])c2n1


 36 39  0  0  0  0  0  0  0  0999 V2000
    1.3193  -51.7878  -21.9176 C   0  0  0  0  0  0  0  0  0  0  0  0
    0.8186  -52.9375  -22.4596 C   0  0  0  0  0  0  0  0  0  0  0  0
    0.8479  -53.1583  -23.8194 C   0  0  0  0  0  0  0  0  0  0  0  0
    1.3792  -52.2410  -24.7045 C   0  0  0  0  0  0  0  0  0  0  0  0
    1.8793  -51.0913  -24.1507 C   0  0  0  0  0  0  0  0  0  0  0  0
    1.8592  -50.8501  -22.7886 C   0  0  0  0  0  0  0  0  0  0  0  0
    1.4391  -52.5152  -26.1289 C   0  0  0  0  0  0  0  0  0  0  0  0
    2.6283  -52.7635  -26.8531 C   0  0  0  0  0  0  0  0  0  0  0  0
    2.3293  -52.9350  -28.1462 N   0  0  0  0  0  0  0  0  0  0  0  0
    1.0127  -52.8205  -28.3516 C   0  0  0  0  0  0  0  0  0  0  0  0
    0.1993  -52.9067  -29.4215 N   0  0  0  0  0  0  0  0  0  0  0  0
   -1.1321  -52.7573  -29.3590 C   0  0  0  0  0  0  0  0  0  0  0  0
   -1.6718  -52.5095  -28.1606 N   0  0  0  0  0  0  0  0  0  0  0  0
   -0.8992  -52.4108  -27.0412 C   0  0  0  0  0  0  0  0  0  0  0  0
   -1.5095  -52.1715  -25.7744 N   0  0  0  0  0  0  0  0  0  0  0  0
    0.4558  -52.5594  -27.0939 C   0  0  0  0  0  0  0  0  0  0  0  0
    3.0048  -53.1315  -28.9111 H   0  0  0  0  0  0  0  0  0  0  0  0
   -1.5345  -52.9663  -25.1024 H   0  0  0  0  0  0  0  0  0  0  0  0
   -1.9278  -51.2727  -25.4720 H   0  0  0  0  0  0  0  0  0  0  0  0
    0.3962  -50.6207  -19.8685 N   0  0  0  0  0  0  0  0  0  0  0  0
    1.3156  -51.4993  -20.4923 C   0  0  0  0  0  0  0  0  0  0  0  0
    2.1728  -52.0572  -19.7688 O   0  0  0  0  0  0  0  0  0  0  0  0
   -0.3184  -50.1554  -20.4662 H   0  0  0  0  0  0  0  0  0  0  0  0
    0.4392  -50.3651  -18.4228 C   0  0  0  0  0  0  0  0  0  0  0  0
    1.6365  -49.5100  -18.1779 C   0  0  0  0  0  0  0  0  0  0  0  0
    2.4201  -49.6103  -17.0519 C   0  0  0  0  0  0  0  0  0  0  0  0
    3.5208  -48.8104  -16.8448 C   0  0  0  0  0  0  0  0  0  0  0  0
    3.8385  -47.8805  -17.8061 C   0  0  0  0  0  0  0  0  0  0  0  0
    3.0551  -47.7738  -18.9409 C   0  0  0  0  0  0  0  0  0  0  0  0
    1.9482  -48.5657  -19.1676 C   0  0  0  0  0  0  0  0  0  0  0  0
    4.9935  -47.0450  -17.5830 C   0  0  0  0  0  0  0  0  0  0  0  0
    5.9308  -46.3672  -17.4134 N   0  0  0  0  0  0  0  0  0  0  0  0
    0.5498  -51.6988  -17.7511 C   0  0  0  0  0  0  0  0  0  0  0  0
   -1.7156  -52.7483  -17.4203 C   0  0  0  0  0  0  0  0  0  0  0  0
   -0.5930  -51.9830  -16.8114 C   0  0  0  0  0  0  0  0  0  0  0  0
   -1.0975  -50.6183  -16.3242 C   0  0  0  0  0  0  0  0  0  0  0  0
 34 35  1  0  0  0
 35 36  1  0  0  0
 35 33  1  0  0  0
 33 24  1  0  0  0
 24 20  1  0  0  0
 20 21  1  0  0  0
 21 22  2  0  0  0
 21  1  1  0  0  0
  1  2  2  0  0  0
  2  3  1  0  0  0
  3  4  2  0  0  0
  4  5  1  0  0  0
  5  6  2  0  0  0
  4  7  1  0  0  0
  7  8  2  0  0  0
  8  9  1  0  0  0
  9 10  1  0  0  0
 10 11  2  0  0  0
 11 12  1  0  0  0
 12 13  2  0  0  0
 13 14  1  0  0  0
 14 15  1  0  0  0
 14 16  2  0  0  0
 24 25  1  0  0  0
 25 26  2  0  0  0
 26 27  1  0  0  0
 27 28  2  0  0  0
 28 29  1  0  0  0
 29 30  2  0  0  0
 28 31  1  0  0  0
 31 32  3  0  0  0
  6  1  1  0  0  0
 16  7  1  0  0  0
 30 25  1  0  0  0
 16 10  1  0  0  0
 20 23  1  0  0  0
  9 17  1  0  0  0
 15 18  1  0  0  0
 15 19  1  0  0  0
M  END
> <minimizedAffinity>
-7.56639

> <CNNscore>
0.1282399893

> <CNNaffinity>
6.2844786644

> <CNN_VS>
0.8059214950

> <CNNaffinity_variance>
0.0942999646

$$$$
[H]c1nc(N([H])[H])c2c(-c3c([H])c([H])c(C(=O)N([H])[C@]([H])(c4c([H])c([H])c(C#N)c([H])c4[H])C([H])([H])C([H])(C([H])([H])[H])C([H])([H])[H])c([H])c3[H])c([H])n([H])c2n1


 36 39  0  0  0  0  0  0  0  0999 V2000
    1.3226  -49.8523  -19.8686 C   0  0  0  0  0  0  0  0  0  0  0  0
    0.2577  -50.5670  -20.3389 C   0  0  0  0  0  0  0  0  0  0  0  0
    0.2334  -51.0468  -21.6304 C   0  0  0  0  0  0  0  0  0  0  0  0
    1.2724  -50.8359  -22.5154 C   0  0  0  0  0  0  0  0  0  0  0  0
    2.3361  -50.1182  -22.0337 C   0  0  0  0  0  0  0  0  0  0  0  0
    2.3800  -49.6276  -20.7409 C   0  0  0  0  0  0  0  0  0  0  0  0
    1.2434  -51.3890  -23.8574 C   0  0  0  0  0  0  0  0  0  0  0  0
    1.8364  -50.7860  -24.9911 C   0  0  0  0  0  0  0  0  0  0  0  0
    1.5862  -51.5361  -26.0708 N   0  0  0  0  0  0  0  0  0  0  0  0
    0.8613  -52.6126  -25.7474 C   0  0  0  0  0  0  0  0  0  0  0  0
    0.3554  -53.6638  -26.4203 N   0  0  0  0  0  0  0  0  0  0  0  0
   -0.3510  -54.6473  -25.8435 C   0  0  0  0  0  0  0  0  0  0  0  0
   -0.5581  -54.5694  -24.5245 N   0  0  0  0  0  0  0  0  0  0  0  0
   -0.0708  -53.5288  -23.7899 C   0  0  0  0  0  0  0  0  0  0  0  0
   -0.2875  -53.4897  -22.3807 N   0  0  0  0  0  0  0  0  0  0  0  0
    0.6474  -52.5226  -24.3668 C   0  0  0  0  0  0  0  0  0  0  0  0
    1.8983  -51.3368  -27.0418 H   0  0  0  0  0  0  0  0  0  0  0  0
    0.5340  -53.6771  -21.7693 H   0  0  0  0  0  0  0  0  0  0  0  0
   -1.1943  -53.2903  -21.9201 H   0  0  0  0  0  0  0  0  0  0  0  0
    0.4111  -49.5263  -17.5285 N   0  0  0  0  0  0  0  0  0  0  0  0
    1.4044  -49.3211  -18.5174 C   0  0  0  0  0  0  0  0  0  0  0  0
    2.4091  -48.6418  -18.2034 O   0  0  0  0  0  0  0  0  0  0  0  0
   -0.4254  -50.0909  -17.7851 H   0  0  0  0  0  0  0  0  0  0  0  0
    0.5453  -48.9646  -16.1780 C   0  0  0  0  0  0  0  0  0  0  0  0
    1.4577  -49.8752  -15.4278 C   0  0  0  0  0  0  0  0  0  0  0  0
    2.6948  -49.4925  -14.9639 C   0  0  0  0  0  0  0  0  0  0  0  0
    3.5221  -50.3492  -14.2742 C   0  0  0  0  0  0  0  0  0  0  0  0
    3.0848  -51.6325  -14.0468 C   0  0  0  0  0  0  0  0  0  0  0  0
    1.8421  -52.0245  -14.5103 C   0  0  0  0  0  0  0  0  0  0  0  0
    0.9978  -51.1815  -15.2034 C   0  0  0  0  0  0  0  0  0  0  0  0
    3.9568  -52.5258  -13.3233 C   0  0  0  0  0  0  0  0  0  0  0  0
    4.6650  -53.2554  -12.7464 N   0  0  0  0  0  0  0  0  0  0  0  0
   -0.8298  -48.9285  -15.5863 C   0  0  0  0  0  0  0  0  0  0  0  0
   -0.1984  -46.8005  -14.3963 C   0  0  0  0  0  0  0  0  0  0  0  0
   -1.2458  -47.5499  -15.1434 C   0  0  0  0  0  0  0  0  0  0  0  0
   -2.4829  -47.7394  -14.2559 C   0  0  0  0  0  0  0  0  0  0  0  0
 34 35  1  0  0  0
 35 36  1  0  0  0
 35 33  1  0  0  0
 33 24  1  0  0  0
 24 20  1  0  0  0
 20 21  1  0  0  0
 21 22  2  0  0  0
 21  1  1  0  0  0
  1  2  2  0  0  0
  2  3  1  0  0  0
  3  4  2  0  0  0
  4  5  1  0  0  0
  5  6  2  0  0  0
  4  7  1  0  0  0
  7  8  2  0  0  0
  8  9  1  0  0  0
  9 10  1  0  0  0
 10 11  2  0  0  0
 11 12  1  0  0  0
 12 13  2  0  0  0
 13 14  1  0  0  0
 14 15  1  0  0  0
 14 16  2  0  0  0
 24 25  1  0  0  0
 25 26  2  0  0  0
 26 27  1  0  0  0
 27 28  2  0  0  0
 28 29  1  0  0  0
 29 30  2  0  0  0
 28 31  1  0  0  0
 31 32  3  0  0  0
  6  1  1  0  0  0
 16  7  1  0  0  0
 30 25  1  0  0  0
 16 10  1  0  0  0
 20 23  1  0  0  0
  9 17  1  0  0  0
 15 18  1  0  0  0
 15 19  1  0  0  0
M  END
> <minimizedAffinity>
-7.01212

> <CNNscore>
0.1236399859

> <CNNaffinity>
6.1234154701

> <CNN_VS>
0.7570989728

> <CNNaffinity_variance>
0.3995442688

$$$$
[H]c1nc(N([H])[H])c2c(-c3c([H])c([H])c(C(=O)N([H])[C@]([H])(c4c([H])c([H])c(C#N)c([H])c4[H])C([H])([H])C([H])(C([H])([H])[H])C([H])([H])[H])c([H])c3[H])c([H])n([H])c2n1


 36 39  0  0  0  0  0  0  0  0999 V2000
    0.8787  -52.0289  -21.3106 C   0  0  0  0  0  0  0  0  0  0  0  0
    0.1426  -53.0991  -21.7334 C   0  0  0  0  0  0  0  0  0  0  0  0
   -0.2632  -53.2139  -23.0452 C   0  0  0  0  0  0  0  0  0  0  0  0
    0.0469  -52.2646  -23.9991 C   0  0  0  0  0  0  0  0  0  0  0  0
    0.7860  -51.1952  -23.5649 C   0  0  0  0  0  0  0  0  0  0  0  0
    1.2030  -51.0610  -22.2527 C   0  0  0  0  0  0  0  0  0  0  0  0
   -0.3542  -52.4293  -25.3847 C   0  0  0  0  0  0  0  0  0  0  0  0
   -1.6428  -52.1402  -25.8911 C   0  0  0  0  0  0  0  0  0  0  0  0
   -1.6829  -52.4443  -27.1936 N   0  0  0  0  0  0  0  0  0  0  0  0
   -0.5048  -52.9217  -27.6096 C   0  0  0  0  0  0  0  0  0  0  0  0
   -0.0087  -53.3576  -28.7833 N   0  0  0  0  0  0  0  0  0  0  0  0
    1.2508  -53.7894  -28.9452 C   0  0  0  0  0  0  0  0  0  0  0  0
    2.0507  -53.7817  -27.8733 N   0  0  0  0  0  0  0  0  0  0  0  0
    1.6048  -53.3518  -26.6583 C   0  0  0  0  0  0  0  0  0  0  0  0
    2.4916  -53.3319  -25.5413 N   0  0  0  0  0  0  0  0  0  0  0  0
    0.3254  -52.9122  -26.4824 C   0  0  0  0  0  0  0  0  0  0  0  0
   -2.5022  -52.3361  -27.8239 H   0  0  0  0  0  0  0  0  0  0  0  0
    2.8189  -52.4001  -25.2123 H   0  0  0  0  0  0  0  0  0  0  0  0
    2.8338  -54.1686  -25.0342 H   0  0  0  0  0  0  0  0  0  0  0  0
    0.9545  -50.7657  -19.1171 N   0  0  0  0  0  0  0  0  0  0  0  0
    1.3345  -51.8536  -19.9409 C   0  0  0  0  0  0  0  0  0  0  0  0
    2.1082  -52.7110  -19.4555 O   0  0  0  0  0  0  0  0  0  0  0  0
    0.3110  -50.0510  -19.5164 H   0  0  0  0  0  0  0  0  0  0  0  0
    1.4468  -50.6381  -17.7391 C   0  0  0  0  0  0  0  0  0  0  0  0
    0.2589  -50.3337  -16.8901 C   0  0  0  0  0  0  0  0  0  0  0  0
   -0.7026  -51.2648  -16.5729 C   0  0  0  0  0  0  0  0  0  0  0  0
   -1.7922  -50.9628  -15.7881 C   0  0  0  0  0  0  0  0  0  0  0  0
   -1.9129  -49.6798  -15.3096 C   0  0  0  0  0  0  0  0  0  0  0  0
   -0.9500  -48.7383  -15.6244 C   0  0  0  0  0  0  0  0  0  0  0  0
    0.1493  -49.0204  -16.4090 C   0  0  0  0  0  0  0  0  0  0  0  0
   -3.0574  -49.3696  -14.4875 C   0  0  0  0  0  0  0  0  0  0  0  0
   -3.9874  -49.1292  -13.8211 N   0  0  0  0  0  0  0  0  0  0  0  0
    2.4440  -49.5210  -17.7381 C   0  0  0  0  0  0  0  0  0  0  0  0
    4.2727  -49.5534  -19.4695 C   0  0  0  0  0  0  0  0  0  0  0  0
    2.8894  -49.1261  -19.1220 C   0  0  0  0  0  0  0  0  0  0  0  0
    2.7857  -47.5966  -19.1861 C   0  0  0  0  0  0  0  0  0  0  0  0
 34 35  1  0  0  0
 35 36  1  0  0  0
 35 33  1  0  0  0
 33 24  1  0  0  0
 24 20  1  0  0  0
 20 21  1  0  0  0
 21 22  2  0  0  0
 21  1  1  0  0  0
  1  2  2  0  0  0
  2  3  1  0  0  0
  3  4  2  0  0  0
  4  5  1  0  0  0
  5  6  2  0  0  0
  4  7  1  0  0  0
  7  8  2  0  0  0
  8  9  1  0  0  0
  9 10  1  0  0  0
 10 11  2  0  0  0
 11 12  1  0  0  0
 12 13  2  0  0  0
 13 14  1  0  0  0
 14 15  1  0  0  0
 14 16  2  0  0  0
 24 25  1  0  0  0
 25 26  2  0  0  0
 26 27  1  0  0  0
 27 28  2  0  0  0
 28 29  1  0  0  0
 29 30  2  0  0  0
 28 31  1  0  0  0
 31 32  3  0  0  0
  6  1  1  0  0  0
 16  7  1  0  0  0
 30 25  1  0  0  0
 16 10  1  0  0  0
 20 23  1  0  0  0
  9 17  1  0  0  0
 15 18  1  0  0  0
 15 19  1  0  0  0
M  END
> <minimizedAffinity>
-8.20928

> <CNNscore>
0.1177898273

> <CNNaffinity>
6.0595407486

> <CNN_VS>
0.7137522697

> <CNNaffinity_variance>
0.1689583212

$$$$
[H]OC(=O)c1c([H])c([H])c(C(=O)N([H])[C@]2([H])C([H])([H])C([H])([H])[C@]([H])(N([H])C(=O)c3c([H])c([H])c(OC([H])([H])[H])c(OC4([H])C([H])([H])C([H])([H])C([H])([H])C4([H])[H])c3[H])C([H])([H])C2([H])[H])c([H])c1[H]


 38 41  0  0  0  0  0  0  0  0999 V2000
    3.8417  -47.6066  -23.6527 C   0  0  0  0  0  0  0  0  0  0  0  0
    5.2647  -47.9673  -23.2117 C   0  0  0  0  0  0  0  0  0  0  0  0
    6.1053  -46.7388  -23.4243 C   0  0  0  0  0  0  0  0  0  0  0  0
    5.6917  -45.6826  -22.4470 C   0  0  0  0  0  0  0  0  0  0  0  0
    4.2611  -45.3156  -22.6742 C   0  0  0  0  0  0  0  0  0  0  0  0
    3.3167  -46.4434  -22.8820 C   0  0  0  0  0  0  0  0  0  0  0  0
    2.7840  -49.7191  -24.3573 C   0  0  0  0  0  0  0  0  0  0  0  0
    3.3499  -49.5895  -25.4651 O   0  0  0  0  0  0  0  0  0  0  0  0
    2.9847  -48.7448  -23.3596 N   0  0  0  0  0  0  0  0  0  0  0  0
    2.5536  -48.7900  -22.4060 H   0  0  0  0  0  0  0  0  0  0  0  0
    0.2832  -53.0508  -23.5416 C   0  0  0  0  0  0  0  0  0  0  0  0
    0.4950  -52.0418  -22.5832 C   0  0  0  0  0  0  0  0  0  0  0  0
    1.3008  -50.9634  -22.8485 C   0  0  0  0  0  0  0  0  0  0  0  0
    1.9218  -50.8540  -24.0752 C   0  0  0  0  0  0  0  0  0  0  0  0
    1.7100  -51.8438  -25.0060 C   0  0  0  0  0  0  0  0  0  0  0  0
    0.9180  -52.9411  -24.7977 C   0  0  0  0  0  0  0  0  0  0  0  0
   -1.2250  -55.0618  -22.9829 C   0  0  0  0  0  0  0  0  0  0  0  0
   -0.4780  -54.0433  -23.2571 O   0  0  0  0  0  0  0  0  0  0  0  0
    0.6816  -53.9430  -25.6870 O   0  0  0  0  0  0  0  0  0  0  0  0
   -0.2122  -53.9472  -26.7571 C   0  0  0  0  0  0  0  0  0  0  0  0
   -0.9850  -52.6488  -26.8717 C   0  0  0  0  0  0  0  0  0  0  0  0
   -1.2908  -52.6483  -28.3747 C   0  0  0  0  0  0  0  0  0  0  0  0
    0.0906  -52.9084  -28.9358 C   0  0  0  0  0  0  0  0  0  0  0  0
    0.6144  -54.0018  -28.0332 C   0  0  0  0  0  0  0  0  0  0  0  0
    5.8989  -46.0620  -21.0610 N   0  0  0  0  0  0  0  0  0  0  0  0
    6.4514  -45.1635  -20.1368 C   0  0  0  0  0  0  0  0  0  0  0  0
    6.7709  -43.9958  -20.5254 O   0  0  0  0  0  0  0  0  0  0  0  0
    5.6327  -47.0107  -20.7461 H   0  0  0  0  0  0  0  0  0  0  0  0
    6.6747  -45.5068  -18.7555 C   0  0  0  0  0  0  0  0  0  0  0  0
    7.7579  -46.2904  -18.3784 C   0  0  0  0  0  0  0  0  0  0  0  0
    7.9606  -46.6205  -17.0539 C   0  0  0  0  0  0  0  0  0  0  0  0
    7.1227  -46.2027  -16.0533 C   0  0  0  0  0  0  0  0  0  0  0  0
    6.0322  -45.4158  -16.4200 C   0  0  0  0  0  0  0  0  0  0  0  0
    5.8257  -45.0832  -17.7447 C   0  0  0  0  0  0  0  0  0  0  0  0
    7.3473  -46.5540  -14.6590 C   0  0  0  0  0  0  0  0  0  0  0  0
    6.3242  -46.4229  -13.7198 O   0  0  0  0  0  0  0  0  0  0  0  0
    8.4461  -46.9746  -14.2838 O   0  0  0  0  0  0  0  0  0  0  0  0
    6.3882  -45.8808  -12.8775 H   0  0  0  0  0  0  0  0  0  0  0  0
 17 18  1  0  0  0
 18 11  1  0  0  0
 11 12  2  0  0  0
 12 13  1  0  0  0
 13 14  2  0  0  0
 14 15  1  0  0  0
 15 16  2  0  0  0
 16 19  1  0  0  0
 19 20  1  0  0  0
 20 21  1  0  0  0
 21 22  1  0  0  0
 22 23  1  0  0  0
 23 24  1  0  0  0
 14  7  1  0  0  0
  7  8  2  0  0  0
  7  9  1  0  0  0
  9  1  1  0  0  0
  1  2  1  0  0  0
  2  3  1  0  0  0
  3  4  1  0  0  0
  4  5  1  0  0  0
  5  6  1  0  0  0
  4 25  1  0  0  0
 25 26  1  0  0  0
 26 27  2  0  0  0
 26 29  1  0  0  0
 29 30  2  0  0  0
 30 31  1  0  0  0
 31 32  2  0  0  0
 32 33  1  0  0  0
 33 34  2  0  0  0
 32 35  1  0  0  0
 35 36  1  0  0  0
 35 37  2  0  0  0
 16 11  1  0  0  0
 24 20  1  0  0  0
  6  1  1  0  0  0
 34 29  1  0  0  0
  9 10  1  0  0  0
 25 28  1  0  0  0
 36 38  1  0  0  0
M  END
> <minimizedAffinity>
-6.33567

> <CNNscore>
0.3000172079

> <CNNaffinity>
5.8129758835

> <CNN_VS>
1.7439928055

> <CNNaffinity_variance>
0.8319738507

$$$$
[H]OC(=O)c1c([H])c([H])c(C(=O)N([H])[C@]2([H])C([H])([H])C([H])([H])[C@]([H])(N([H])C(=O)c3c([H])c([H])c(OC([H])([H])[H])c(OC4([H])C([H])([H])C([H])([H])C([H])([H])C4([H])[H])c3[H])C([H])([H])C2([H])[H])c([H])c1[H]


 38 41  0  0  0  0  0  0  0  0999 V2000
    3.7132  -47.6933  -23.1306 C   0  0  0  0  0  0  0  0  0  0  0  0
    4.6878  -47.6945  -21.9474 C   0  0  0  0  0  0  0  0  0  0  0  0
    5.4990  -46.4332  -22.0571 C   0  0  0  0  0  0  0  0  0  0  0  0
    4.6173  -45.2541  -21.7848 C   0  0  0  0  0  0  0  0  0  0  0  0
    3.5225  -45.1960  -22.8002 C   0  0  0  0  0  0  0  0  0  0  0  0
    2.8459  -46.4809  -23.1137 C   0  0  0  0  0  0  0  0  0  0  0  0
    2.7895  -49.7907  -24.0392 C   0  0  0  0  0  0  0  0  0  0  0  0
    3.4911  -49.6139  -25.0594 O   0  0  0  0  0  0  0  0  0  0  0  0
    2.8443  -48.8514  -22.9905 N   0  0  0  0  0  0  0  0  0  0  0  0
    2.2948  -48.9367  -22.1028 H   0  0  0  0  0  0  0  0  0  0  0  0
    0.2591  -53.1790  -23.6708 C   0  0  0  0  0  0  0  0  0  0  0  0
    0.3522  -52.2194  -22.6452 C   0  0  0  0  0  0  0  0  0  0  0  0
    1.1679  -51.1226  -22.7661 C   0  0  0  0  0  0  0  0  0  0  0  0
    1.9168  -50.9452  -23.9107 C   0  0  0  0  0  0  0  0  0  0  0  0
    1.8204  -51.8871  -24.9078 C   0  0  0  0  0  0  0  0  0  0  0  0
    1.0250  -52.9997  -24.8430 C   0  0  0  0  0  0  0  0  0  0  0  0
   -1.2830  -55.2227  -23.3952 C   0  0  0  0  0  0  0  0  0  0  0  0
   -0.5154  -54.1906  -23.5216 O   0  0  0  0  0  0  0  0  0  0  0  0
    0.8998  -53.9560  -25.8023 O   0  0  0  0  0  0  0  0  0  0  0  0
   -0.0141  -54.0015  -26.8543 C   0  0  0  0  0  0  0  0  0  0  0  0
   -0.8894  -52.7661  -26.9153 C   0  0  0  0  0  0  0  0  0  0  0  0
   -1.2271  -52.7479  -28.4113 C   0  0  0  0  0  0  0  0  0  0  0  0
    0.1580  -52.8814  -29.0069 C   0  0  0  0  0  0  0  0  0  0  0  0
    0.7861  -53.9545  -28.1474 C   0  0  0  0  0  0  0  0  0  0  0  0
    4.0600  -45.2442  -20.4443 N   0  0  0  0  0  0  0  0  0  0  0  0
    3.8112  -44.0400  -19.7699 C   0  0  0  0  0  0  0  0  0  0  0  0
    4.0773  -42.9405  -20.3503 O   0  0  0  0  0  0  0  0  0  0  0  0
    3.8390  -46.1400  -19.9765 H   0  0  0  0  0  0  0  0  0  0  0  0
    3.2630  -43.9924  -18.4384 C   0  0  0  0  0  0  0  0  0  0  0  0
    3.5231  -45.0018  -17.5202 C   0  0  0  0  0  0  0  0  0  0  0  0
    2.9884  -44.9520  -16.2491 C   0  0  0  0  0  0  0  0  0  0  0  0
    2.1862  -43.9245  -15.8264 C   0  0  0  0  0  0  0  0  0  0  0  0
    1.9182  -42.9059  -16.7394 C   0  0  0  0  0  0  0  0  0  0  0  0
    2.4515  -42.9521  -18.0128 C   0  0  0  0  0  0  0  0  0  0  0  0
    1.6297  -43.8801  -14.4824 C   0  0  0  0  0  0  0  0  0  0  0  0
    1.6788  -45.0029  -13.6559 O   0  0  0  0  0  0  0  0  0  0  0  0
    1.1059  -42.8486  -14.0506 O   0  0  0  0  0  0  0  0  0  0  0  0
    0.8786  -45.4340  -13.2301 H   0  0  0  0  0  0  0  0  0  0  0  0
 17 18  1  0  0  0
 18 11  1  0  0  0
 11 12  2  0  0  0
 12 13  1  0  0  0
 13 14  2  0  0  0
 14 15  1  0  0  0
 15 16  2  0  0  0
 16 19  1  0  0  0
 19 20  1  0  0  0
 20 21  1  0  0  0
 21 22  1  0  0  0
 22 23  1  0  0  0
 23 24  1  0  0  0
 14  7  1  0  0  0
  7  8  2  0  0  0
  7  9  1  0  0  0
  9  1  1  0  0  0
  1  2  1  0  0  0
  2  3  1  0  0  0
  3  4  1  0  0  0
  4  5  1  0  0  0
  5  6  1  0  0  0
  4 25  1  0  0  0
 25 26  1  0  0  0
 26 27  2  0  0  0
 26 29  1  0  0  0
 29 30  2  0  0  0
 30 31  1  0  0  0
 31 32  2  0  0  0
 32 33  1  0  0  0
 33 34  2  0  0  0
 32 35  1  0  0  0
 35 36  1  0  0  0
 35 37  2  0  0  0
 16 11  1  0  0  0
 24 20  1  0  0  0
  6  1  1  0  0  0
 34 29  1  0  0  0
  9 10  1  0  0  0
 25 28  1  0  0  0
 36 38  1  0  0  0
M  END
> <minimizedAffinity>
-6.82941

> <CNNscore>
0.2806628942

> <CNNaffinity>
5.7290892601

> <CNN_VS>
1.6079428196

> <CNNaffinity_variance>
0.5731162429

$$$$
[H]OC(=O)c1c([H])c([H])c(C(=O)N([H])[C@]2([H])C([H])([H])C([H])([H])[C@]([H])(N([H])C(=O)c3c([H])c([H])c(OC([H])([H])[H])c(OC4([H])C([H])([H])C([H])([H])C([H])([H])C4([H])[H])c3[H])C([H])([H])C2([H])[H])c([H])c1[H]


 38 41  0  0  0  0  0  0  0  0999 V2000
    3.1770  -46.7109  -23.1466 C   0  0  0  0  0  0  0  0  0  0  0  0
    2.4339  -45.7967  -24.1272 C   0  0  0  0  0  0  0  0  0  0  0  0
    3.3263  -44.6113  -24.3708 C   0  0  0  0  0  0  0  0  0  0  0  0
    4.5306  -45.0508  -25.1441 C   0  0  0  0  0  0  0  0  0  0  0  0
    5.2986  -46.0600  -24.3537 C   0  0  0  0  0  0  0  0  0  0  0  0
    4.5010  -47.1249  -23.6927 C   0  0  0  0  0  0  0  0  0  0  0  0
    2.2603  -48.4724  -21.6856 C   0  0  0  0  0  0  0  0  0  0  0  0
    2.8297  -47.9164  -20.7207 O   0  0  0  0  0  0  0  0  0  0  0  0
    2.3816  -47.9165  -22.9745 N   0  0  0  0  0  0  0  0  0  0  0  0
    1.9263  -48.3190  -23.8277 H   0  0  0  0  0  0  0  0  0  0  0  0
   -0.0138  -52.0200  -21.1730 C   0  0  0  0  0  0  0  0  0  0  0  0
    0.0833  -51.0579  -20.1500 C   0  0  0  0  0  0  0  0  0  0  0  0
    0.8159  -49.9098  -20.3174 C   0  0  0  0  0  0  0  0  0  0  0  0
    1.4752  -49.6819  -21.5073 C   0  0  0  0  0  0  0  0  0  0  0  0
    1.3755  -50.6265  -22.5016 C   0  0  0  0  0  0  0  0  0  0  0  0
    0.6605  -51.7890  -22.3915 C   0  0  0  0  0  0  0  0  0  0  0  0
   -1.4287  -54.1329  -20.7678 C   0  0  0  0  0  0  0  0  0  0  0  0
   -0.7091  -53.0804  -20.9796 O   0  0  0  0  0  0  0  0  0  0  0  0
    0.5356  -52.7500  -23.3462 O   0  0  0  0  0  0  0  0  0  0  0  0
   -0.4315  -52.8455  -24.3460 C   0  0  0  0  0  0  0  0  0  0  0  0
   -0.2993  -51.7521  -25.3866 C   0  0  0  0  0  0  0  0  0  0  0  0
   -0.9224  -52.4559  -26.5986 C   0  0  0  0  0  0  0  0  0  0  0  0
   -0.1548  -53.7603  -26.5830 C   0  0  0  0  0  0  0  0  0  0  0  0
   -0.1560  -54.1279  -25.1169 C   0  0  0  0  0  0  0  0  0  0  0  0
    4.2145  -45.5779  -26.4594 N   0  0  0  0  0  0  0  0  0  0  0  0
    3.9571  -44.7239  -27.5416 C   0  0  0  0  0  0  0  0  0  0  0  0
    4.0068  -43.4662  -27.3615 O   0  0  0  0  0  0  0  0  0  0  0  0
    4.1804  -46.6016  -26.6046 H   0  0  0  0  0  0  0  0  0  0  0  0
    3.6364  -45.2115  -28.8588 C   0  0  0  0  0  0  0  0  0  0  0  0
    4.5862  -45.2142  -29.8724 C   0  0  0  0  0  0  0  0  0  0  0  0
    4.2688  -45.6766  -31.1332 C   0  0  0  0  0  0  0  0  0  0  0  0
    3.0234  -46.1509  -31.4527 C   0  0  0  0  0  0  0  0  0  0  0  0
    2.0621  -46.1529  -30.4434 C   0  0  0  0  0  0  0  0  0  0  0  0
    2.3759  -45.6909  -29.1800 C   0  0  0  0  0  0  0  0  0  0  0  0
    2.6999  -46.6392  -32.7850 C   0  0  0  0  0  0  0  0  0  0  0  0
    2.5090  -48.0019  -33.0151 O   0  0  0  0  0  0  0  0  0  0  0  0
    2.5880  -45.8564  -33.7335 O   0  0  0  0  0  0  0  0  0  0  0  0
    3.0178  -48.5439  -33.6894 H   0  0  0  0  0  0  0  0  0  0  0  0
 17 18  1  0  0  0
 18 11  1  0  0  0
 11 12  2  0  0  0
 12 13  1  0  0  0
 13 14  2  0  0  0
 14 15  1  0  0  0
 15 16  2  0  0  0
 16 19  1  0  0  0
 19 20  1  0  0  0
 20 21  1  0  0  0
 21 22  1  0  0  0
 22 23  1  0  0  0
 23 24  1  0  0  0
 14  7  1  0  0  0
  7  8  2  0  0  0
  7  9  1  0  0  0
  9  1  1  0  0  0
  1  2  1  0  0  0
  2  3  1  0  0  0
  3  4  1  0  0  0
  4  5  1  0  0  0
  5  6  1  0  0  0
  4 25  1  0  0  0
 25 26  1  0  0  0
 26 27  2  0  0  0
 26 29  1  0  0  0
 29 30  2  0  0  0
 30 31  1  0  0  0
 31 32  2  0  0  0
 32 33  1  0  0  0
 33 34  2  0  0  0
 32 35  1  0  0  0
 35 36  1  0  0  0
 35 37  2  0  0  0
 16 11  1  0  0  0
 24 20  1  0  0  0
  6  1  1  0  0  0
 34 29  1  0  0  0
  9 10  1  0  0  0
 25 28  1  0  0  0
 36 38  1  0  0  0
M  END
> <minimizedAffinity>
-7.87979

> <CNNscore>
0.2120641321

> <CNNaffinity>
5.8780589104

> <CNN_VS>
1.2465254068

> <CNNaffinity_variance>
0.1731351167

$$$$
[H]OC(=O)c1c([H])c([H])c(C(=O)N([H])[C@]2([H])C([H])([H])C([H])([H])[C@]([H])(N([H])C(=O)c3c([H])c([H])c(OC([H])([H])[H])c(OC4([H])C([H])([H])C([H])([H])C([H])([H])C4([H])[H])c3[H])C([H])([H])C2([H])[H])c([H])c1[H]


 38 41  0  0  0  0  0  0  0  0999 V2000
    1.0661  -51.9098  -19.0810 C   0  0  0  0  0  0  0  0  0  0  0  0
    1.6932  -52.9098  -20.0590 C   0  0  0  0  0  0  0  0  0  0  0  0
    0.7864  -54.1087  -20.0887 C   0  0  0  0  0  0  0  0  0  0  0  0
   -0.5047  -53.7349  -20.7483 C   0  0  0  0  0  0  0  0  0  0  0  0
   -1.1798  -52.6570  -19.9638 C   0  0  0  0  0  0  0  0  0  0  0  0
   -0.3164  -51.5409  -19.4994 C   0  0  0  0  0  0  0  0  0  0  0  0
    2.4314  -50.2234  -17.9106 C   0  0  0  0  0  0  0  0  0  0  0  0
    2.2374  -50.8570  -16.8498 O   0  0  0  0  0  0  0  0  0  0  0  0
    1.8681  -50.6967  -19.1121 N   0  0  0  0  0  0  0  0  0  0  0  0
    1.9946  -50.2267  -20.0396 H   0  0  0  0  0  0  0  0  0  0  0  0
    4.7447  -46.6652  -17.9971 C   0  0  0  0  0  0  0  0  0  0  0  0
    3.8744  -46.9473  -16.9272 C   0  0  0  0  0  0  0  0  0  0  0  0
    3.1293  -48.0992  -16.8982 C   0  0  0  0  0  0  0  0  0  0  0  0
    3.2258  -49.0071  -17.9320 C   0  0  0  0  0  0  0  0  0  0  0  0
    4.0780  -48.7242  -18.9734 C   0  0  0  0  0  0  0  0  0  0  0  0
    4.8448  -47.5929  -19.0564 C   0  0  0  0  0  0  0  0  0  0  0  0
    6.1258  -44.4923  -17.9540 C   0  0  0  0  0  0  0  0  0  0  0  0
    5.4258  -45.5783  -17.9881 O   0  0  0  0  0  0  0  0  0  0  0  0
    5.6984  -47.2719  -20.0658 O   0  0  0  0  0  0  0  0  0  0  0  0
    7.0765  -47.4761  -20.1216 C   0  0  0  0  0  0  0  0  0  0  0  0
    7.5265  -48.6329  -19.2526 C   0  0  0  0  0  0  0  0  0  0  0  0
    8.7996  -49.0517  -19.9984 C   0  0  0  0  0  0  0  0  0  0  0  0
    8.2668  -49.1609  -21.4109 C   0  0  0  0  0  0  0  0  0  0  0  0
    7.4078  -47.9237  -21.5375 C   0  0  0  0  0  0  0  0  0  0  0  0
   -0.3515  -53.3272  -22.1332 N   0  0  0  0  0  0  0  0  0  0  0  0
   -0.7152  -54.1795  -23.1859 C   0  0  0  0  0  0  0  0  0  0  0  0
   -1.1906  -55.3273  -22.9153 O   0  0  0  0  0  0  0  0  0  0  0  0
    0.0302  -52.3906  -22.3506 H   0  0  0  0  0  0  0  0  0  0  0  0
   -0.5733  -53.8100  -24.5711 C   0  0  0  0  0  0  0  0  0  0  0  0
   -0.0967  -54.7168  -25.5092 C   0  0  0  0  0  0  0  0  0  0  0  0
    0.0427  -54.3525  -26.8328 C   0  0  0  0  0  0  0  0  0  0  0  0
   -0.2749  -53.1004  -27.2904 C   0  0  0  0  0  0  0  0  0  0  0  0
   -0.7542  -52.1819  -26.3579 C   0  0  0  0  0  0  0  0  0  0  0  0
   -0.8951  -52.5426  -25.0319 C   0  0  0  0  0  0  0  0  0  0  0  0
   -0.1270  -52.7273  -28.6893 C   0  0  0  0  0  0  0  0  0  0  0  0
   -1.2298  -52.3056  -29.4323 O   0  0  0  0  0  0  0  0  0  0  0  0
    0.9763  -52.7767  -29.2418 O   0  0  0  0  0  0  0  0  0  0  0  0
   -1.5350  -52.7270  -30.2906 H   0  0  0  0  0  0  0  0  0  0  0  0
 17 18  1  0  0  0
 18 11  1  0  0  0
 11 12  2  0  0  0
 12 13  1  0  0  0
 13 14  2  0  0  0
 14 15  1  0  0  0
 15 16  2  0  0  0
 16 19  1  0  0  0
 19 20  1  0  0  0
 20 21  1  0  0  0
 21 22  1  0  0  0
 22 23  1  0  0  0
 23 24  1  0  0  0
 14  7  1  0  0  0
  7  8  2  0  0  0
  7  9  1  0  0  0
  9  1  1  0  0  0
  1  2  1  0  0  0
  2  3  1  0  0  0
  3  4  1  0  0  0
  4  5  1  0  0  0
  5  6  1  0  0  0
  4 25  1  0  0  0
 25 26  1  0  0  0
 26 27  2  0  0  0
 26 29  1  0  0  0
 29 30  2  0  0  0
 30 31  1  0  0  0
 31 32  2  0  0  0
 32 33  1  0  0  0
 33 34  2  0  0  0
 32 35  1  0  0  0
 35 36  1  0  0  0
 35 37  2  0  0  0
 16 11  1  0  0  0
 24 20  1  0  0  0
  6  1  1  0  0  0
 34 29  1  0  0  0
  9 10  1  0  0  0
 25 28  1  0  0  0
 36 38  1  0  0  0
M  END
> <minimizedAffinity>
-6.57741

> <CNNscore>
0.2024575770

> <CNNaffinity>
5.9774656296

> <CNN_VS>
1.2101832628

> <CNNaffinity_variance>
0.5084496737

$$$$
[H]OC(=O)c1c([H])c([H])c(C(=O)N([H])[C@]2([H])C([H])([H])C([H])([H])[C@]([H])(N([H])C(=O)c3c([H])c([H])c(OC([H])([H])[H])c(OC4([H])C([H])([H])C([H])([H])C([H])([H])C4([H])[H])c3[H])C([H])([H])C2([H])[H])c([H])c1[H]


 38 41  0  0  0  0  0  0  0  0999 V2000
    3.2707  -50.0801  -18.2623 C   0  0  0  0  0  0  0  0  0  0  0  0
    3.0081  -50.9553  -17.0316 C   0  0  0  0  0  0  0  0  0  0  0  0
    3.4119  -50.1432  -15.8322 C   0  0  0  0  0  0  0  0  0  0  0  0
    2.4558  -49.0034  -15.6633 C   0  0  0  0  0  0  0  0  0  0  0  0
    2.5065  -48.1183  -16.8661 C   0  0  0  0  0  0  0  0  0  0  0  0
    2.5103  -48.8000  -18.1861 C   0  0  0  0  0  0  0  0  0  0  0  0
    1.4528  -51.2426  -19.4545 C   0  0  0  0  0  0  0  0  0  0  0  0
    0.7079  -50.9984  -18.4799 O   0  0  0  0  0  0  0  0  0  0  0  0
    2.7908  -50.8020  -19.4303 N   0  0  0  0  0  0  0  0  0  0  0  0
    3.4703  -50.9598  -20.2117 H   0  0  0  0  0  0  0  0  0  0  0  0
    0.0602  -53.3701  -22.8537 C   0  0  0  0  0  0  0  0  0  0  0  0
    0.0013  -53.9308  -21.5638 C   0  0  0  0  0  0  0  0  0  0  0  0
    0.4486  -53.2414  -20.4650 C   0  0  0  0  0  0  0  0  0  0  0  0
    0.9687  -51.9726  -20.6137 C   0  0  0  0  0  0  0  0  0  0  0  0
    1.0229  -51.4320  -21.8770 C   0  0  0  0  0  0  0  0  0  0  0  0
    0.5924  -52.0718  -23.0083 C   0  0  0  0  0  0  0  0  0  0  0  0
   -0.7913  -54.7504  -24.8537 C   0  0  0  0  0  0  0  0  0  0  0  0
   -0.3688  -54.0451  -23.8565 O   0  0  0  0  0  0  0  0  0  0  0  0
    0.6280  -51.5772  -24.2751 O   0  0  0  0  0  0  0  0  0  0  0  0
    1.7159  -51.5257  -25.1457 C   0  0  0  0  0  0  0  0  0  0  0  0
    2.6894  -52.6657  -24.9247 C   0  0  0  0  0  0  0  0  0  0  0  0
    3.3021  -52.7732  -26.3266 C   0  0  0  0  0  0  0  0  0  0  0  0
    2.0472  -52.8323  -27.1707 C   0  0  0  0  0  0  0  0  0  0  0  0
    1.1795  -51.7617  -26.5498 C   0  0  0  0  0  0  0  0  0  0  0  0
    1.0904  -49.4251  -15.4071 N   0  0  0  0  0  0  0  0  0  0  0  0
    0.2599  -48.7069  -14.5346 C   0  0  0  0  0  0  0  0  0  0  0  0
    0.7162  -47.6664  -13.9638 O   0  0  0  0  0  0  0  0  0  0  0  0
    0.7198  -50.2687  -15.8773 H   0  0  0  0  0  0  0  0  0  0  0  0
   -1.0979  -49.0981  -14.2540 C   0  0  0  0  0  0  0  0  0  0  0  0
   -1.7445  -48.6660  -13.1030 C   0  0  0  0  0  0  0  0  0  0  0  0
   -3.0429  -49.0510  -12.8384 C   0  0  0  0  0  0  0  0  0  0  0  0
   -3.7563  -49.8654  -13.6785 C   0  0  0  0  0  0  0  0  0  0  0  0
   -3.1175  -50.3053  -14.8366 C   0  0  0  0  0  0  0  0  0  0  0  0
   -1.8179  -49.9222  -15.1052 C   0  0  0  0  0  0  0  0  0  0  0  0
   -5.1264  -50.2632  -13.3914 C   0  0  0  0  0  0  0  0  0  0  0  0
   -5.5303  -51.5885  -13.5547 O   0  0  0  0  0  0  0  0  0  0  0  0
   -5.9540  -49.4355  -12.9978 O   0  0  0  0  0  0  0  0  0  0  0  0
   -6.2942  -51.8854  -14.1342 H   0  0  0  0  0  0  0  0  0  0  0  0
 17 18  1  0  0  0
 18 11  1  0  0  0
 11 12  2  0  0  0
 12 13  1  0  0  0
 13 14  2  0  0  0
 14 15  1  0  0  0
 15 16  2  0  0  0
 16 19  1  0  0  0
 19 20  1  0  0  0
 20 21  1  0  0  0
 21 22  1  0  0  0
 22 23  1  0  0  0
 23 24  1  0  0  0
 14  7  1  0  0  0
  7  8  2  0  0  0
  7  9  1  0  0  0
  9  1  1  0  0  0
  1  2  1  0  0  0
  2  3  1  0  0  0
  3  4  1  0  0  0
  4  5  1  0  0  0
  5  6  1  0  0  0
  4 25  1  0  0  0
 25 26  1  0  0  0
 26 27  2  0  0  0
 26 29  1  0  0  0
 29 30  2  0  0  0
 30 31  1  0  0  0
 31 32  2  0  0  0
 32 33  1  0  0  0
 33 34  2  0  0  0
 32 35  1  0  0  0
 35 36  1  0  0  0
 35 37  2  0  0  0
 16 11  1  0  0  0
 24 20  1  0  0  0
  6  1  1  0  0  0
 34 29  1  0  0  0
  9 10  1  0  0  0
 25 28  1  0  0  0
 36 38  1  0  0  0
M  END
> <minimizedAffinity>
-6.85354

> <CNNscore>
0.1886958927

> <CNNaffinity>
5.8421912193

> <CNN_VS>
1.1023974419

> <CNNaffinity_variance>
0.0718838722

$$$$
[H]OC(=O)c1c([H])c([H])c(C(=O)N([H])[C@]2([H])C([H])([H])C([H])([H])[C@]([H])(N([H])C(=O)c3c([H])c([H])c(OC([H])([H])[H])c(OC4([H])C([H])([H])C([H])([H])C([H])([H])C4([H])[H])c3[H])C([H])([H])C2([H])[H])c([H])c1[H]


 38 41  0  0  0  0  0  0  0  0999 V2000
    3.8780  -47.6314  -23.5772 C   0  0  0  0  0  0  0  0  0  0  0  0
    4.8231  -47.8685  -22.3939 C   0  0  0  0  0  0  0  0  0  0  0  0
    5.5228  -46.5633  -22.1341 C   0  0  0  0  0  0  0  0  0  0  0  0
    4.5356  -45.5714  -21.6019 C   0  0  0  0  0  0  0  0  0  0  0  0
    3.4622  -45.3334  -22.6138 C   0  0  0  0  0  0  0  0  0  0  0  0
    2.9076  -46.5388  -23.2819 C   0  0  0  0  0  0  0  0  0  0  0  0
    2.3206  -49.3425  -22.7262 C   0  0  0  0  0  0  0  0  0  0  0  0
    2.2891  -48.7207  -21.6414 O   0  0  0  0  0  0  0  0  0  0  0  0
    3.1111  -48.8500  -23.7833 N   0  0  0  0  0  0  0  0  0  0  0  0
    3.1799  -49.3094  -24.7222 H   0  0  0  0  0  0  0  0  0  0  0  0
    0.1157  -52.9229  -23.3084 C   0  0  0  0  0  0  0  0  0  0  0  0
    0.1986  -52.3112  -22.0432 C   0  0  0  0  0  0  0  0  0  0  0  0
    0.9088  -51.1521  -21.8563 C   0  0  0  0  0  0  0  0  0  0  0  0
    1.5591  -50.5644  -22.9212 C   0  0  0  0  0  0  0  0  0  0  0  0
    1.4734  -51.1682  -24.1537 C   0  0  0  0  0  0  0  0  0  0  0  0
    0.7808  -52.3234  -24.3997 C   0  0  0  0  0  0  0  0  0  0  0  0
   -1.2129  -55.1123  -23.5772 C   0  0  0  0  0  0  0  0  0  0  0  0
   -0.5587  -54.0056  -23.4440 O   0  0  0  0  0  0  0  0  0  0  0  0
    0.6704  -52.9552  -25.5994 O   0  0  0  0  0  0  0  0  0  0  0  0
    0.3809  -52.3926  -26.8418 C   0  0  0  0  0  0  0  0  0  0  0  0
    0.6143  -53.3599  -27.9845 C   0  0  0  0  0  0  0  0  0  0  0  0
   -0.3743  -52.8027  -29.0163 C   0  0  0  0  0  0  0  0  0  0  0  0
   -1.6288  -52.7140  -28.1742 C   0  0  0  0  0  0  0  0  0  0  0  0
   -1.1170  -52.1288  -26.8779 C   0  0  0  0  0  0  0  0  0  0  0  0
    3.9507  -45.9602  -20.3313 N   0  0  0  0  0  0  0  0  0  0  0  0
    4.5495  -45.5999  -19.1154 C   0  0  0  0  0  0  0  0  0  0  0  0
    5.6220  -44.9172  -19.1332 O   0  0  0  0  0  0  0  0  0  0  0  0
    3.0749  -46.5107  -20.3194 H   0  0  0  0  0  0  0  0  0  0  0  0
    3.9995  -45.9716  -17.8366 C   0  0  0  0  0  0  0  0  0  0  0  0
    3.2467  -45.0725  -17.0921 C   0  0  0  0  0  0  0  0  0  0  0  0
    2.7294  -45.4342  -15.8651 C   0  0  0  0  0  0  0  0  0  0  0  0
    2.9237  -46.6765  -15.3202 C   0  0  0  0  0  0  0  0  0  0  0  0
    3.6777  -47.5872  -16.0585 C   0  0  0  0  0  0  0  0  0  0  0  0
    4.1973  -47.2289  -17.2872 C   0  0  0  0  0  0  0  0  0  0  0  0
    2.3710  -47.0489  -14.0265 C   0  0  0  0  0  0  0  0  0  0  0  0
    2.8788  -46.4948  -12.8511 O   0  0  0  0  0  0  0  0  0  0  0  0
    1.4435  -47.8603  -13.9469 O   0  0  0  0  0  0  0  0  0  0  0  0
    3.2383  -47.0252  -12.0786 H   0  0  0  0  0  0  0  0  0  0  0  0
 17 18  1  0  0  0
 18 11  1  0  0  0
 11 12  2  0  0  0
 12 13  1  0  0  0
 13 14  2  0  0  0
 14 15  1  0  0  0
 15 16  2  0  0  0
 16 19  1  0  0  0
 19 20  1  0  0  0
 20 21  1  0  0  0
 21 22  1  0  0  0
 22 23  1  0  0  0
 23 24  1  0  0  0
 14  7  1  0  0  0
  7  8  2  0  0  0
  7  9  1  0  0  0
  9  1  1  0  0  0
  1  2  1  0  0  0
  2  3  1  0  0  0
  3  4  1  0  0  0
  4  5  1  0  0  0
  5  6  1  0  0  0
  4 25  1  0  0  0
 25 26  1  0  0  0
 26 27  2  0  0  0
 26 29  1  0  0  0
 29 30  2  0  0  0
 30 31  1  0  0  0
 31 32  2  0  0  0
 32 33  1  0  0  0
 33 34  2  0  0  0
 32 35  1  0  0  0
 35 36  1  0  0  0
 35 37  2  0  0  0
 16 11  1  0  0  0
 24 20  1  0  0  0
  6  1  1  0  0  0
 34 29  1  0  0  0
  9 10  1  0  0  0
 25 28  1  0  0  0
 36 38  1  0  0  0
M  END
> <minimizedAffinity>
-6.45775

> <CNNscore>
0.1769800782

> <CNNaffinity>
5.8228545189

> <CNN_VS>
1.0305292606

> <CNNaffinity_variance>
0.6204946041

$$$$
[H]OC(=O)c1c([H])c([H])c(C(=O)N([H])[C@]2([H])C([H])([H])C([H])([H])[C@]([H])(N([H])C(=O)c3c([H])c([H])c(OC([H])([H])[H])c(OC4([H])C([H])([H])C([H])([H])C([H])([H])C4([H])[H])c3[H])C([H])([H])C2([H])[H])c([H])c1[H]


 38 41  0  0  0  0  0  0  0  0999 V2000
    5.1314  -47.3740  -23.4809 C   0  0  0  0  0  0  0  0  0  0  0  0
    3.6260  -47.3621  -23.7695 C   0  0  0  0  0  0  0  0  0  0  0  0
    3.4576  -47.8132  -25.1939 C   0  0  0  0  0  0  0  0  0  0  0  0
    3.8241  -49.2610  -25.2998 C   0  0  0  0  0  0  0  0  0  0  0  0
    5.2558  -49.4497  -24.9155 C   0  0  0  0  0  0  0  0  0  0  0  0
    5.7116  -48.7299  -23.6984 C   0  0  0  0  0  0  0  0  0  0  0  0
    5.7653  -45.7506  -21.7372 C   0  0  0  0  0  0  0  0  0  0  0  0
    5.9868  -44.9188  -22.6447 O   0  0  0  0  0  0  0  0  0  0  0  0
    5.3163  -47.0421  -22.0768 N   0  0  0  0  0  0  0  0  0  0  0  0
    5.1006  -47.7876  -21.3733 H   0  0  0  0  0  0  0  0  0  0  0  0
    6.3502  -44.7914  -17.6436 C   0  0  0  0  0  0  0  0  0  0  0  0
    6.6874  -43.8826  -18.6643 C   0  0  0  0  0  0  0  0  0  0  0  0
    6.4951  -44.1918  -19.9873 C   0  0  0  0  0  0  0  0  0  0  0  0
    5.9615  -45.4146  -20.3373 C   0  0  0  0  0  0  0  0  0  0  0  0
    5.6349  -46.2969  -19.3344 C   0  0  0  0  0  0  0  0  0  0  0  0
    5.8043  -46.0436  -17.9996 C   0  0  0  0  0  0  0  0  0  0  0  0
    6.7370  -44.1668  -15.1756 C   0  0  0  0  0  0  0  0  0  0  0  0
    6.5437  -44.4658  -16.4181 O   0  0  0  0  0  0  0  0  0  0  0  0
    5.4974  -46.8852  -16.9758 O   0  0  0  0  0  0  0  0  0  0  0  0
    4.2423  -47.1488  -16.4287 C   0  0  0  0  0  0  0  0  0  0  0  0
    3.6553  -48.4537  -16.9272 C   0  0  0  0  0  0  0  0  0  0  0  0
    2.7467  -48.8106  -15.7442 C   0  0  0  0  0  0  0  0  0  0  0  0
    3.7205  -48.6600  -14.5953 C   0  0  0  0  0  0  0  0  0  0  0  0
    4.4405  -47.3759  -14.9375 C   0  0  0  0  0  0  0  0  0  0  0  0
    2.9733  -50.1337  -24.5110 N   0  0  0  0  0  0  0  0  0  0  0  0
    2.1308  -51.0735  -25.1225 C   0  0  0  0  0  0  0  0  0  0  0  0
    2.1197  -51.1601  -26.3909 O   0  0  0  0  0  0  0  0  0  0  0  0
    2.9885  -50.0652  -23.4789 H   0  0  0  0  0  0  0  0  0  0  0  0
    1.2706  -51.9523  -24.3719 C   0  0  0  0  0  0  0  0  0  0  0  0
    1.2617  -51.9316  -22.9830 C   0  0  0  0  0  0  0  0  0  0  0  0
    0.4398  -52.7816  -22.2717 C   0  0  0  0  0  0  0  0  0  0  0  0
   -0.3991  -53.6775  -22.8811 C   0  0  0  0  0  0  0  0  0  0  0  0
   -0.3986  -53.7072  -24.2747 C   0  0  0  0  0  0  0  0  0  0  0  0
    0.4227  -52.8580  -24.9905 C   0  0  0  0  0  0  0  0  0  0  0  0
   -1.2643  -54.5676  -22.1214 C   0  0  0  0  0  0  0  0  0  0  0  0
   -2.0424  -55.5265  -22.7704 O   0  0  0  0  0  0  0  0  0  0  0  0
   -1.3238  -54.4900  -20.8904 O   0  0  0  0  0  0  0  0  0  0  0  0
   -3.0393  -55.6062  -22.6849 H   0  0  0  0  0  0  0  0  0  0  0  0
 17 18  1  0  0  0
 18 11  1  0  0  0
 11 12  2  0  0  0
 12 13  1  0  0  0
 13 14  2  0  0  0
 14 15  1  0  0  0
 15 16  2  0  0  0
 16 19  1  0  0  0
 19 20  1  0  0  0
 20 21  1  0  0  0
 21 22  1  0  0  0
 22 23  1  0  0  0
 23 24  1  0  0  0
 14  7  1  0  0  0
  7  8  2  0  0  0
  7  9  1  0  0  0
  9  1  1  0  0  0
  1  2  1  0  0  0
  2  3  1  0  0  0
  3  4  1  0  0  0
  4  5  1  0  0  0
  5  6  1  0  0  0
  4 25  1  0  0  0
 25 26  1  0  0  0
 26 27  2  0  0  0
 26 29  1  0  0  0
 29 30  2  0  0  0
 30 31  1  0  0  0
 31 32  2  0  0  0
 32 33  1  0  0  0
 33 34  2  0  0  0
 32 35  1  0  0  0
 35 36  1  0  0  0
 35 37  2  0  0  0
 16 11  1  0  0  0
 24 20  1  0  0  0
  6  1  1  0  0  0
 34 29  1  0  0  0
  9 10  1  0  0  0
 25 28  1  0  0  0
 36 38  1  0  0  0
M  END
> <minimizedAffinity>
-5.76468

> <CNNscore>
0.1564059705

> <CNNaffinity>
5.6339192390

> <CNN_VS>
0.8811786175

> <CNNaffinity_variance>
0.8020114899

$$$$
[H]OC(=O)c1c([H])c([H])c(C(=O)N([H])[C@]2([H])C([H])([H])C([H])([H])[C@]([H])(N([H])C(=O)c3c([H])c([H])c(OC([H])([H])[H])c(OC4([H])C([H])([H])C([H])([H])C([H])([H])C4([H])[H])c3[H])C([H])([H])C2([H])[H])c([H])c1[H]


 38 41  0  0  0  0  0  0  0  0999 V2000
    5.1927  -50.2459  -22.2654 C   0  0  0  0  0  0  0  0  0  0  0  0
    4.8609  -49.8598  -23.7112 C   0  0  0  0  0  0  0  0  0  0  0  0
    5.4565  -50.9258  -24.5886 C   0  0  0  0  0  0  0  0  0  0  0  0
    4.7079  -52.2066  -24.3865 C   0  0  0  0  0  0  0  0  0  0  0  0
    4.8340  -52.6470  -22.9641 C   0  0  0  0  0  0  0  0  0  0  0  0
    4.6544  -51.5953  -21.9304 C   0  0  0  0  0  0  0  0  0  0  0  0
    5.3325  -48.4842  -20.5465 C   0  0  0  0  0  0  0  0  0  0  0  0
    6.5769  -48.6069  -20.5754 O   0  0  0  0  0  0  0  0  0  0  0  0
    4.5384  -49.2870  -21.3890 N   0  0  0  0  0  0  0  0  0  0  0  0
    3.4929  -49.2342  -21.4280 H   0  0  0  0  0  0  0  0  0  0  0  0
    3.4545  -45.7091  -17.9406 C   0  0  0  0  0  0  0  0  0  0  0  0
    4.1198  -45.2847  -19.1062 C   0  0  0  0  0  0  0  0  0  0  0  0
    4.7239  -46.1824  -19.9500 C   0  0  0  0  0  0  0  0  0  0  0  0
    4.6857  -47.5307  -19.6614 C   0  0  0  0  0  0  0  0  0  0  0  0
    4.0340  -47.9372  -18.5209 C   0  0  0  0  0  0  0  0  0  0  0  0
    3.4144  -47.0885  -17.6431 C   0  0  0  0  0  0  0  0  0  0  0  0
    2.3514  -43.9425  -16.4263 C   0  0  0  0  0  0  0  0  0  0  0  0
    2.9006  -44.8399  -17.1769 O   0  0  0  0  0  0  0  0  0  0  0  0
    2.7607  -47.4453  -16.5048 O   0  0  0  0  0  0  0  0  0  0  0  0
    3.2621  -48.1542  -15.4138 C   0  0  0  0  0  0  0  0  0  0  0  0
    4.5514  -47.5624  -14.8813 C   0  0  0  0  0  0  0  0  0  0  0  0
    4.4756  -48.0209  -13.4197 C   0  0  0  0  0  0  0  0  0  0  0  0
    3.0779  -47.5642  -13.0610 C   0  0  0  0  0  0  0  0  0  0  0  0
    2.2729  -47.9794  -14.2711 C   0  0  0  0  0  0  0  0  0  0  0  0
    3.3087  -52.1264  -24.7652 N   0  0  0  0  0  0  0  0  0  0  0  0
    2.8470  -52.6903  -25.9634 C   0  0  0  0  0  0  0  0  0  0  0  0
    3.6735  -53.2843  -26.7254 O   0  0  0  0  0  0  0  0  0  0  0  0
    2.6373  -51.6475  -24.1407 H   0  0  0  0  0  0  0  0  0  0  0  0
    1.4672  -52.6262  -26.3729 C   0  0  0  0  0  0  0  0  0  0  0  0
    0.9488  -53.5336  -27.2880 C   0  0  0  0  0  0  0  0  0  0  0  0
   -0.3722  -53.4609  -27.6801 C   0  0  0  0  0  0  0  0  0  0  0  0
   -1.2328  -52.5091  -27.1992 C   0  0  0  0  0  0  0  0  0  0  0  0
   -0.7236  -51.5931  -26.2803 C   0  0  0  0  0  0  0  0  0  0  0  0
    0.5982  -51.6624  -25.8852 C   0  0  0  0  0  0  0  0  0  0  0  0
   -2.6253  -52.4431  -27.6171 C   0  0  0  0  0  0  0  0  0  0  0  0
   -3.0659  -53.1527  -28.7345 O   0  0  0  0  0  0  0  0  0  0  0  0
   -3.4402  -51.7594  -26.9899 O   0  0  0  0  0  0  0  0  0  0  0  0
   -3.5257  -52.7424  -29.5267 H   0  0  0  0  0  0  0  0  0  0  0  0
 17 18  1  0  0  0
 18 11  1  0  0  0
 11 12  2  0  0  0
 12 13  1  0  0  0
 13 14  2  0  0  0
 14 15  1  0  0  0
 15 16  2  0  0  0
 16 19  1  0  0  0
 19 20  1  0  0  0
 20 21  1  0  0  0
 21 22  1  0  0  0
 22 23  1  0  0  0
 23 24  1  0  0  0
 14  7  1  0  0  0
  7  8  2  0  0  0
  7  9  1  0  0  0
  9  1  1  0  0  0
  1  2  1  0  0  0
  2  3  1  0  0  0
  3  4  1  0  0  0
  4  5  1  0  0  0
  5  6  1  0  0  0
  4 25  1  0  0  0
 25 26  1  0  0  0
 26 27  2  0  0  0
 26 29  1  0  0  0
 29 30  2  0  0  0
 30 31  1  0  0  0
 31 32  2  0  0  0
 32 33  1  0  0  0
 33 34  2  0  0  0
 32 35  1  0  0  0
 35 36  1  0  0  0
 35 37  2  0  0  0
 16 11  1  0  0  0
 24 20  1  0  0  0
  6  1  1  0  0  0
 34 29  1  0  0  0
  9 10  1  0  0  0
 25 28  1  0  0  0
 36 38  1  0  0  0
M  END
> <minimizedAffinity>
-6.08032

> <CNNscore>
0.1488376707

> <CNNaffinity>
5.7202262878

> <CNN_VS>
0.8513851762

> <CNNaffinity_variance>
0.6513342857

$$$$
[H]OC(=O)c1c([H])c([H])c(C(=O)N([H])[C@]2([H])C([H])([H])C([H])([H])[C@]([H])(N([H])C(=O)c3c([H])c([H])c(OC([H])([H])[H])c(OC4([H])C([H])([H])C([H])([H])C([H])([H])C4([H])[H])c3[H])C([H])([H])C2([H])[H])c([H])c1[H]


 38 41  0  0  0  0  0  0  0  0999 V2000
    1.4857  -51.5124  -19.2979 C   0  0  0  0  0  0  0  0  0  0  0  0
    1.9319  -52.6282  -20.2496 C   0  0  0  0  0  0  0  0  0  0  0  0
    0.9077  -53.7234  -20.1384 C   0  0  0  0  0  0  0  0  0  0  0  0
   -0.3845  -53.2527  -20.7304 C   0  0  0  0  0  0  0  0  0  0  0  0
   -0.8850  -52.0657  -19.9731 C   0  0  0  0  0  0  0  0  0  0  0  0
    0.1205  -51.0230  -19.6431 C   0  0  0  0  0  0  0  0  0  0  0  0
    3.5325  -50.3139  -18.6255 C   0  0  0  0  0  0  0  0  0  0  0  0
    3.7261  -51.2029  -17.7671 O   0  0  0  0  0  0  0  0  0  0  0  0
    2.4027  -50.3955  -19.4633 N   0  0  0  0  0  0  0  0  0  0  0  0
    2.1797  -49.6959  -20.2103 H   0  0  0  0  0  0  0  0  0  0  0  0
    6.2073  -47.0448  -19.0464 C   0  0  0  0  0  0  0  0  0  0  0  0
    6.4522  -48.2779  -19.6797 C   0  0  0  0  0  0  0  0  0  0  0  0
    5.5856  -49.3333  -19.5460 C   0  0  0  0  0  0  0  0  0  0  0  0
    4.4480  -49.1962  -18.7782 C   0  0  0  0  0  0  0  0  0  0  0  0
    4.2160  -47.9886  -18.1627 C   0  0  0  0  0  0  0  0  0  0  0  0
    5.0438  -46.9023  -18.2599 C   0  0  0  0  0  0  0  0  0  0  0  0
    7.8579  -45.0902  -19.3395 C   0  0  0  0  0  0  0  0  0  0  0  0
    7.0403  -46.0809  -19.1961 O   0  0  0  0  0  0  0  0  0  0  0  0
    4.8551  -45.6917  -17.6687 O   0  0  0  0  0  0  0  0  0  0  0  0
    5.0169  -45.3590  -16.3244 C   0  0  0  0  0  0  0  0  0  0  0  0
    3.7397  -45.5302  -15.5273 C   0  0  0  0  0  0  0  0  0  0  0  0
    4.3241  -45.7908  -14.1334 C   0  0  0  0  0  0  0  0  0  0  0  0
    5.3206  -46.8841  -14.4537 C   0  0  0  0  0  0  0  0  0  0  0  0
    5.9715  -46.3783  -15.7207 C   0  0  0  0  0  0  0  0  0  0  0  0
   -0.2953  -52.9442  -22.1462 N   0  0  0  0  0  0  0  0  0  0  0  0
   -0.5787  -53.9128  -23.1200 C   0  0  0  0  0  0  0  0  0  0  0  0
   -0.9229  -55.0793  -22.7493 O   0  0  0  0  0  0  0  0  0  0  0  0
   -0.0206  -51.9927  -22.4451 H   0  0  0  0  0  0  0  0  0  0  0  0
   -0.4967  -53.6433  -24.5329 C   0  0  0  0  0  0  0  0  0  0  0  0
   -0.0611  -54.6161  -25.4236 C   0  0  0  0  0  0  0  0  0  0  0  0
    0.0211  -54.3474  -26.7746 C   0  0  0  0  0  0  0  0  0  0  0  0
   -0.3157  -53.1301  -27.3061 C   0  0  0  0  0  0  0  0  0  0  0  0
   -0.7542  -52.1460  -26.4217 C   0  0  0  0  0  0  0  0  0  0  0  0
   -0.8379  -52.4109  -25.0686 C   0  0  0  0  0  0  0  0  0  0  0  0
   -0.2283  -52.8580  -28.7331 C   0  0  0  0  0  0  0  0  0  0  0  0
    1.0129  -52.7335  -29.3577 O   0  0  0  0  0  0  0  0  0  0  0  0
   -1.2502  -52.7338  -29.4151 O   0  0  0  0  0  0  0  0  0  0  0  0
    1.3083  -51.9333  -29.8866 H   0  0  0  0  0  0  0  0  0  0  0  0
 17 18  1  0  0  0
 18 11  1  0  0  0
 11 12  2  0  0  0
 12 13  1  0  0  0
 13 14  2  0  0  0
 14 15  1  0  0  0
 15 16  2  0  0  0
 16 19  1  0  0  0
 19 20  1  0  0  0
 20 21  1  0  0  0
 21 22  1  0  0  0
 22 23  1  0  0  0
 23 24  1  0  0  0
 14  7  1  0  0  0
  7  8  2  0  0  0
  7  9  1  0  0  0
  9  1  1  0  0  0
  1  2  1  0  0  0
  2  3  1  0  0  0
  3  4  1  0  0  0
  4  5  1  0  0  0
  5  6  1  0  0  0
  4 25  1  0  0  0
 25 26  1  0  0  0
 26 27  2  0  0  0
 26 29  1  0  0  0
 29 30  2  0  0  0
 30 31  1  0  0  0
 31 32  2  0  0  0
 32 33  1  0  0  0
 33 34  2  0  0  0
 32 35  1  0  0  0
 35 36  1  0  0  0
 35 37  2  0  0  0
 16 11  1  0  0  0
 24 20  1  0  0  0
  6  1  1  0  0  0
 34 29  1  0  0  0
  9 10  1  0  0  0
 25 28  1  0  0  0
 36 38  1  0  0  0
M  END
> <minimizedAffinity>
-6.83945

> <CNNscore>
0.1414992213

> <CNNaffinity>
5.8475370407

> <CNN_VS>
0.8274219632

> <CNNaffinity_variance>
0.7112671733

$$$$
[H]OC(=O)C([H])([H])[C@@]([H])(C(=O)N1C([H])([H])C([H])([H])C([H])([H])[C@@]1([H])C(=O)N([H])[C@]([H])(C(=O)N([H])[C@]([H])(C(=O)O[H])C([H])(C([H])([H])[H])C([H])([H])[H])C([H])([H])c1c([H])c([H])c(O[H])c([H])c1[H])N([H])C(=O)[C@@]([H])(N([H])C(=O)C([H])([H])[H])C([H])([H])c1c([H])c([H])c([H])c([H])c1[H]


 56 58  0  0  0  0  0  0  0  0999 V2000
    3.2725  -49.7680  -20.4142 C   0  0  0  0  0  0  0  0  0  0  0  0
    2.3796  -48.5854  -20.7418 C   0  0  0  0  0  0  0  0  0  0  0  0
    1.8540  -48.8932  -22.1200 C   0  0  0  0  0  0  0  0  0  0  0  0
    2.6019  -50.0904  -22.5931 C   0  0  0  0  0  0  0  0  0  0  0  0
    3.7343  -50.2106  -21.7046 N   0  0  0  0  0  0  0  0  0  0  0  0
    5.0602  -50.6436  -21.9704 C   0  0  0  0  0  0  0  0  0  0  0  0
    5.9119  -50.6202  -21.0345 O   0  0  0  0  0  0  0  0  0  0  0  0
    1.0882  -50.6734  -19.6146 N   0  0  0  0  0  0  0  0  0  0  0  0
    2.4740  -50.8616  -19.7793 C   0  0  0  0  0  0  0  0  0  0  0  0
    3.0899  -51.8913  -19.4292 O   0  0  0  0  0  0  0  0  0  0  0  0
    0.6635  -49.7764  -19.9370 H   0  0  0  0  0  0  0  0  0  0  0  0
    0.1716  -51.6413  -19.0184 C   0  0  0  0  0  0  0  0  0  0  0  0
    0.9087  -50.4315  -16.8632 N   0  0  0  0  0  0  0  0  0  0  0  0
    0.0912  -51.3286  -17.6037 C   0  0  0  0  0  0  0  0  0  0  0  0
   -0.7998  -51.9095  -16.9256 O   0  0  0  0  0  0  0  0  0  0  0  0
    1.6368  -49.9148  -17.3919 H   0  0  0  0  0  0  0  0  0  0  0  0
    0.7773  -50.2038  -15.4430 C   0  0  0  0  0  0  0  0  0  0  0  0
   -0.0084  -49.0296  -15.0777 C   0  0  0  0  0  0  0  0  0  0  0  0
   -0.3039  -48.0728  -16.0172 O   0  0  0  0  0  0  0  0  0  0  0  0
   -0.4270  -48.8638  -13.9164 O   0  0  0  0  0  0  0  0  0  0  0  0
    0.4550  -47.4292  -16.2699 H   0  0  0  0  0  0  0  0  0  0  0  0
    2.5789  -51.6736  -14.5187 C   0  0  0  0  0  0  0  0  0  0  0  0
    2.1177  -50.2723  -14.7924 C   0  0  0  0  0  0  0  0  0  0  0  0
    3.1751  -49.4585  -15.5017 C   0  0  0  0  0  0  0  0  0  0  0  0
    0.4878  -52.9893  -19.4868 C   0  0  0  0  0  0  0  0  0  0  0  0
    0.0052  -53.4564  -20.7630 C   0  0  0  0  0  0  0  0  0  0  0  0
   -1.0843  -54.2555  -20.9399 C   0  0  0  0  0  0  0  0  0  0  0  0
   -1.4728  -54.6477  -22.2180 C   0  0  0  0  0  0  0  0  0  0  0  0
   -0.8024  -54.2661  -23.3557 C   0  0  0  0  0  0  0  0  0  0  0  0
   -1.1624  -54.6394  -24.6483 O   0  0  0  0  0  0  0  0  0  0  0  0
    0.3122  -53.4476  -23.1617 C   0  0  0  0  0  0  0  0  0  0  0  0
    0.6813  -53.0715  -21.9082 C   0  0  0  0  0  0  0  0  0  0  0  0
   -0.7818  -55.4836  -25.0612 H   0  0  0  0  0  0  0  0  0  0  0  0
    5.5424  -51.1286  -23.2769 C   0  0  0  0  0  0  0  0  0  0  0  0
    4.7322  -50.6822  -24.3831 N   0  0  0  0  0  0  0  0  0  0  0  0
    3.8685  -51.5904  -25.0872 C   0  0  0  0  0  0  0  0  0  0  0  0
    3.8741  -52.7919  -24.6735 O   0  0  0  0  0  0  0  0  0  0  0  0
    4.7189  -49.6961  -24.7316 H   0  0  0  0  0  0  0  0  0  0  0  0
    3.0208  -51.1927  -26.2187 C   0  0  0  0  0  0  0  0  0  0  0  0
    3.7786  -50.3076  -27.0862 N   0  0  0  0  0  0  0  0  0  0  0  0
    3.7394  -48.8994  -26.8685 C   0  0  0  0  0  0  0  0  0  0  0  0
    4.5240  -47.9851  -27.7593 C   0  0  0  0  0  0  0  0  0  0  0  0
    3.0581  -48.4311  -25.9438 O   0  0  0  0  0  0  0  0  0  0  0  0
    4.3474  -50.7199  -27.8662 H   0  0  0  0  0  0  0  0  0  0  0  0
    2.4737  -52.3640  -27.0018 C   0  0  0  0  0  0  0  0  0  0  0  0
    0.9701  -52.3007  -27.0694 C   0  0  0  0  0  0  0  0  0  0  0  0
    0.2949  -52.8314  -28.1403 C   0  0  0  0  0  0  0  0  0  0  0  0
   -1.0768  -52.7591  -28.1660 C   0  0  0  0  0  0  0  0  0  0  0  0
   -1.8363  -52.1704  -27.1558 C   0  0  0  0  0  0  0  0  0  0  0  0
   -1.1094  -51.6515  -26.1027 C   0  0  0  0  0  0  0  0  0  0  0  0
    0.2626  -51.7124  -26.0550 C   0  0  0  0  0  0  0  0  0  0  0  0
    6.9707  -50.6911  -23.5200 C   0  0  0  0  0  0  0  0  0  0  0  0
    7.0913  -49.6927  -24.5932 C   0  0  0  0  0  0  0  0  0  0  0  0
    7.6128  -50.0847  -25.8086 O   0  0  0  0  0  0  0  0  0  0  0  0
    6.7413  -48.5078  -24.4472 O   0  0  0  0  0  0  0  0  0  0  0  0
    7.2267  -49.8954  -26.7014 H   0  0  0  0  0  0  0  0  0  0  0  0
 22 23  1  0  0  0
 23 24  1  0  0  0
 23 17  1  0  0  0
 17 13  1  0  0  0
 13 14  1  0  0  0
 14 15  2  0  0  0
 14 12  1  0  0  0
 12 25  1  0  0  0
 25 26  1  0  0  0
 26 27  2  0  0  0
 27 28  1  0  0  0
 28 29  2  0  0  0
 29 30  1  0  0  0
 29 31  1  0  0  0
 31 32  2  0  0  0
 12  8  1  0  0  0
  8  9  1  0  0  0
  9 10  2  0  0  0
  9  1  1  0  0  0
  1  2  1  0  0  0
  2  3  1  0  0  0
  3  4  1  0  0  0
  4  5  1  0  0  0
  5  6  1  0  0  0
  6  7  2  0  0  0
  6 34  1  0  0  0
 34 52  1  0  0  0
 52 53  1  0  0  0
 53 54  1  0  0  0
 53 55  2  0  0  0
 34 35  1  0  0  0
 35 36  1  0  0  0
 36 37  2  0  0  0
 36 39  1  0  0  0
 39 45  1  0  0  0
 45 46  1  0  0  0
 46 47  2  0  0  0
 47 48  1  0  0  0
 48 49  2  0  0  0
 49 50  1  0  0  0
 50 51  2  0  0  0
 39 40  1  0  0  0
 40 41  1  0  0  0
 41 42  1  0  0  0
 41 43  2  0  0  0
 17 18  1  0  0  0
 18 19  1  0  0  0
 18 20  2  0  0  0
 32 26  1  0  0  0
  5  1  1  0  0  0
 51 46  1  0  0  0
 13 16  1  0  0  0
 30 33  1  0  0  0
  8 11  1  0  0  0
 54 56  1  0  0  0
 35 38  1  0  0  0
 40 44  1  0  0  0
 19 21  1  0  0  0
M  END
> <minimizedAffinity>
-8.75734

> <CNNscore>
0.2271207124

> <CNNaffinity>
7.2244415283

> <CNN_VS>
1.6408202648

> <CNNaffinity_variance>
0.2239738405

$$$$
[H]OC(=O)C([H])([H])[C@@]([H])(C(=O)N1C([H])([H])C([H])([H])C([H])([H])[C@@]1([H])C(=O)N([H])[C@]([H])(C(=O)N([H])[C@]([H])(C(=O)O[H])C([H])(C([H])([H])[H])C([H])([H])[H])C([H])([H])c1c([H])c([H])c(O[H])c([H])c1[H])N([H])C(=O)[C@@]([H])(N([H])C(=O)C([H])([H])[H])C([H])([H])c1c([H])c([H])c([H])c([H])c1[H]


 56 58  0  0  0  0  0  0  0  0999 V2000
    3.3238  -49.5329  -20.3761 C   0  0  0  0  0  0  0  0  0  0  0  0
    2.5141  -48.3002  -20.7338 C   0  0  0  0  0  0  0  0  0  0  0  0
    1.9242  -48.6270  -22.0813 C   0  0  0  0  0  0  0  0  0  0  0  0
    2.5635  -49.8984  -22.5184 C   0  0  0  0  0  0  0  0  0  0  0  0
    3.7103  -50.0667  -21.6568 N   0  0  0  0  0  0  0  0  0  0  0  0
    4.9904  -50.6128  -21.9383 C   0  0  0  0  0  0  0  0  0  0  0  0
    5.8700  -50.6141  -21.0283 O   0  0  0  0  0  0  0  0  0  0  0  0
    1.0811  -50.2833  -19.5776 N   0  0  0  0  0  0  0  0  0  0  0  0
    2.4642  -50.5320  -19.6694 C   0  0  0  0  0  0  0  0  0  0  0  0
    3.0295  -51.5417  -19.1972 O   0  0  0  0  0  0  0  0  0  0  0  0
    0.7010  -49.4091  -20.0020 H   0  0  0  0  0  0  0  0  0  0  0  0
    0.1095  -51.1573  -18.9262 C   0  0  0  0  0  0  0  0  0  0  0  0
   -0.5967  -51.3839  -16.4560 N   0  0  0  0  0  0  0  0  0  0  0  0
   -0.0245  -50.6918  -17.5583 C   0  0  0  0  0  0  0  0  0  0  0  0
    0.4077  -49.5382  -17.2877 O   0  0  0  0  0  0  0  0  0  0  0  0
   -0.9401  -52.3467  -16.6334 H   0  0  0  0  0  0  0  0  0  0  0  0
   -0.7176  -50.8285  -15.1282 C   0  0  0  0  0  0  0  0  0  0  0  0
   -0.1070  -51.6256  -14.0693 C   0  0  0  0  0  0  0  0  0  0  0  0
    0.2371  -52.9351  -14.2973 O   0  0  0  0  0  0  0  0  0  0  0  0
    0.1153  -51.1461  -12.9415 O   0  0  0  0  0  0  0  0  0  0  0  0
   -0.5311  -53.6162  -14.3036 H   0  0  0  0  0  0  0  0  0  0  0  0
   -2.3948  -48.9743  -15.0300 C   0  0  0  0  0  0  0  0  0  0  0  0
   -2.1346  -50.4430  -14.8670 C   0  0  0  0  0  0  0  0  0  0  0  0
   -3.1376  -51.2814  -15.6249 C   0  0  0  0  0  0  0  0  0  0  0  0
    0.4048  -52.5556  -19.2325 C   0  0  0  0  0  0  0  0  0  0  0  0
   -0.0784  -53.1597  -20.4497 C   0  0  0  0  0  0  0  0  0  0  0  0
   -1.1847  -53.9497  -20.5425 C   0  0  0  0  0  0  0  0  0  0  0  0
   -1.5721  -54.4818  -21.7694 C   0  0  0  0  0  0  0  0  0  0  0  0
   -0.8840  -54.2524  -22.9370 C   0  0  0  0  0  0  0  0  0  0  0  0
   -1.2423  -54.7680  -24.1802 O   0  0  0  0  0  0  0  0  0  0  0  0
    0.2478  -53.4416  -22.8292 C   0  0  0  0  0  0  0  0  0  0  0  0
    0.6156  -52.9280  -21.6251 C   0  0  0  0  0  0  0  0  0  0  0  0
   -0.8781  -55.6633  -24.4864 H   0  0  0  0  0  0  0  0  0  0  0  0
    5.3936  -51.1912  -23.2335 C   0  0  0  0  0  0  0  0  0  0  0  0
    4.5804  -50.7394  -24.3354 N   0  0  0  0  0  0  0  0  0  0  0  0
    3.7521  -51.6539  -25.0730 C   0  0  0  0  0  0  0  0  0  0  0  0
    3.7909  -52.8656  -24.6924 O   0  0  0  0  0  0  0  0  0  0  0  0
    4.5399  -49.7449  -24.6569 H   0  0  0  0  0  0  0  0  0  0  0  0
    2.9032  -51.2512  -26.2019 C   0  0  0  0  0  0  0  0  0  0  0  0
    3.6711  -50.3899  -27.0843 N   0  0  0  0  0  0  0  0  0  0  0  0
    3.6722  -48.9803  -26.8724 C   0  0  0  0  0  0  0  0  0  0  0  0
    4.4674  -48.0906  -27.7786 C   0  0  0  0  0  0  0  0  0  0  0  0
    3.0174  -48.4905  -25.9398 O   0  0  0  0  0  0  0  0  0  0  0  0
    4.2172  -50.8203  -27.8708 H   0  0  0  0  0  0  0  0  0  0  0  0
    2.3271  -52.4195  -26.9685 C   0  0  0  0  0  0  0  0  0  0  0  0
    0.8230  -52.3426  -27.0011 C   0  0  0  0  0  0  0  0  0  0  0  0
    0.1237  -51.8577  -25.9239 C   0  0  0  0  0  0  0  0  0  0  0  0
   -1.2472  -51.7983  -25.9908 C   0  0  0  0  0  0  0  0  0  0  0  0
   -1.9826  -52.2071  -27.1026 C   0  0  0  0  0  0  0  0  0  0  0  0
   -1.2322  -52.6870  -28.1577 C   0  0  0  0  0  0  0  0  0  0  0  0
    0.1396  -52.7555  -28.1138 C   0  0  0  0  0  0  0  0  0  0  0  0
    6.8403  -50.8693  -23.5402 C   0  0  0  0  0  0  0  0  0  0  0  0
    6.9921  -49.7919  -24.5297 C   0  0  0  0  0  0  0  0  0  0  0  0
    7.5207  -50.0969  -25.7668 O   0  0  0  0  0  0  0  0  0  0  0  0
    6.6624  -48.6156  -24.2942 O   0  0  0  0  0  0  0  0  0  0  0  0
    7.1490  -49.8303  -26.6458 H   0  0  0  0  0  0  0  0  0  0  0  0
 22 23  1  0  0  0
 23 24  1  0  0  0
 23 17  1  0  0  0
 17 13  1  0  0  0
 13 14  1  0  0  0
 14 15  2  0  0  0
 14 12  1  0  0  0
 12 25  1  0  0  0
 25 26  1  0  0  0
 26 27  2  0  0  0
 27 28  1  0  0  0
 28 29  2  0  0  0
 29 30  1  0  0  0
 29 31  1  0  0  0
 31 32  2  0  0  0
 12  8  1  0  0  0
  8  9  1  0  0  0
  9 10  2  0  0  0
  9  1  1  0  0  0
  1  2  1  0  0  0
  2  3  1  0  0  0
  3  4  1  0  0  0
  4  5  1  0  0  0
  5  6  1  0  0  0
  6  7  2  0  0  0
  6 34  1  0  0  0
 34 52  1  0  0  0
 52 53  1  0  0  0
 53 54  1  0  0  0
 53 55  2  0  0  0
 34 35  1  0  0  0
 35 36  1  0  0  0
 36 37  2  0  0  0
 36 39  1  0  0  0
 39 45  1  0  0  0
 45 46  1  0  0  0
 46 47  2  0  0  0
 47 48  1  0  0  0
 48 49  2  0  0  0
 49 50  1  0  0  0
 50 51  2  0  0  0
 39 40  1  0  0  0
 40 41  1  0  0  0
 41 42  1  0  0  0
 41 43  2  0  0  0
 17 18  1  0  0  0
 18 19  1  0  0  0
 18 20  2  0  0  0
 32 26  1  0  0  0
  5  1  1  0  0  0
 51 46  1  0  0  0
 13 16  1  0  0  0
 30 33  1  0  0  0
  8 11  1  0  0  0
 54 56  1  0  0  0
 35 38  1  0  0  0
 40 44  1  0  0  0
 19 21  1  0  0  0
M  END
> <minimizedAffinity>
-9.06956

> <CNNscore>
0.2050533146

> <CNNaffinity>
7.2042627335

> <CNN_VS>
1.4772579670

> <CNNaffinity_variance>
0.1783818156

$$$$
[H]OC(=O)C([H])([H])[C@@]([H])(C(=O)N1C([H])([H])C([H])([H])C([H])([H])[C@@]1([H])C(=O)N([H])[C@]([H])(C(=O)N([H])[C@]([H])(C(=O)O[H])C([H])(C([H])([H])[H])C([H])([H])[H])C([H])([H])c1c([H])c([H])c(O[H])c([H])c1[H])N([H])C(=O)[C@@]([H])(N([H])C(=O)C([H])([H])[H])C([H])([H])c1c([H])c([H])c([H])c([H])c1[H]


 56 58  0  0  0  0  0  0  0  0999 V2000
    1.5642  -52.6523  -20.5917 C   0  0  0  0  0  0  0  0  0  0  0  0
    0.3349  -53.4926  -20.2988 C   0  0  0  0  0  0  0  0  0  0  0  0
   -0.6856  -52.4944  -19.8166 C   0  0  0  0  0  0  0  0  0  0  0  0
    0.0374  -51.2025  -19.6600 C   0  0  0  0  0  0  0  0  0  0  0  0
    1.4406  -51.5437  -19.6806 N   0  0  0  0  0  0  0  0  0  0  0  0
    2.5287  -50.9727  -18.9691 C   0  0  0  0  0  0  0  0  0  0  0  0
    3.6828  -51.4729  -19.1092 O   0  0  0  0  0  0  0  0  0  0  0  0
    2.5563  -51.2926  -22.4349 N   0  0  0  0  0  0  0  0  0  0  0  0
    1.5198  -52.1386  -21.9955 C   0  0  0  0  0  0  0  0  0  0  0  0
    0.5551  -52.4953  -22.7057 O   0  0  0  0  0  0  0  0  0  0  0  0
    3.3196  -51.0484  -21.7666 H   0  0  0  0  0  0  0  0  0  0  0  0
    2.6607  -50.7121  -23.7707 C   0  0  0  0  0  0  0  0  0  0  0  0
    1.6461  -52.0550  -25.7250 N   0  0  0  0  0  0  0  0  0  0  0  0
    2.6157  -51.8144  -24.7133 C   0  0  0  0  0  0  0  0  0  0  0  0
    3.5328  -52.6780  -24.6481 O   0  0  0  0  0  0  0  0  0  0  0  0
    0.8898  -51.3521  -25.8268 H   0  0  0  0  0  0  0  0  0  0  0  0
    1.6624  -53.2017  -26.6031 C   0  0  0  0  0  0  0  0  0  0  0  0
    2.3803  -53.0059  -27.8583 C   0  0  0  0  0  0  0  0  0  0  0  0
    2.4869  -54.0323  -28.7641 O   0  0  0  0  0  0  0  0  0  0  0  0
    2.9115  -51.9149  -28.1395 O   0  0  0  0  0  0  0  0  0  0  0  0
    3.1670  -54.7690  -28.5436 H   0  0  0  0  0  0  0  0  0  0  0  0
    0.0158  -54.9681  -25.9479 C   0  0  0  0  0  0  0  0  0  0  0  0
    0.2794  -53.7367  -26.7639 C   0  0  0  0  0  0  0  0  0  0  0  0
   -0.7971  -52.6934  -26.5749 C   0  0  0  0  0  0  0  0  0  0  0  0
    3.7325  -49.7190  -23.8061 C   0  0  0  0  0  0  0  0  0  0  0  0
    4.0362  -49.0078  -25.0234 C   0  0  0  0  0  0  0  0  0  0  0  0
    3.1114  -48.5777  -25.9268 C   0  0  0  0  0  0  0  0  0  0  0  0
    3.5079  -47.8922  -27.0720 C   0  0  0  0  0  0  0  0  0  0  0  0
    4.8222  -47.6112  -27.3604 C   0  0  0  0  0  0  0  0  0  0  0  0
    5.2542  -46.9288  -28.4951 O   0  0  0  0  0  0  0  0  0  0  0  0
    5.7606  -48.0570  -26.4273 C   0  0  0  0  0  0  0  0  0  0  0  0
    5.3604  -48.7254  -25.3128 C   0  0  0  0  0  0  0  0  0  0  0  0
    5.4839  -47.4381  -29.3411 H   0  0  0  0  0  0  0  0  0  0  0  0
    2.4262  -49.8190  -18.0564 C   0  0  0  0  0  0  0  0  0  0  0  0
    3.1574  -48.6641  -18.5159 N   0  0  0  0  0  0  0  0  0  0  0  0
    2.7328  -47.9272  -19.6748 C   0  0  0  0  0  0  0  0  0  0  0  0
    1.6889  -48.3615  -20.2547 O   0  0  0  0  0  0  0  0  0  0  0  0
    4.0171  -48.2973  -18.0464 H   0  0  0  0  0  0  0  0  0  0  0  0
    3.4362  -46.7442  -20.1877 C   0  0  0  0  0  0  0  0  0  0  0  0
    4.1070  -46.0801  -19.0836 N   0  0  0  0  0  0  0  0  0  0  0  0
    4.1554  -44.6562  -19.0385 C   0  0  0  0  0  0  0  0  0  0  0  0
    4.8429  -43.9692  -17.8981 C   0  0  0  0  0  0  0  0  0  0  0  0
    3.6295  -43.9866  -19.9405 O   0  0  0  0  0  0  0  0  0  0  0  0
    4.5499  -46.6617  -18.3301 H   0  0  0  0  0  0  0  0  0  0  0  0
    4.4173  -47.0596  -21.2934 C   0  0  0  0  0  0  0  0  0  0  0  0
    4.0758  -46.2883  -22.5414 C   0  0  0  0  0  0  0  0  0  0  0  0
    2.7694  -46.1362  -22.9345 C   0  0  0  0  0  0  0  0  0  0  0  0
    2.4952  -45.4229  -24.0761 C   0  0  0  0  0  0  0  0  0  0  0  0
    3.4777  -44.8354  -24.8721 C   0  0  0  0  0  0  0  0  0  0  0  0
    4.7742  -45.0186  -24.4335 C   0  0  0  0  0  0  0  0  0  0  0  0
    5.0726  -45.7277  -23.2949 C   0  0  0  0  0  0  0  0  0  0  0  0
    0.9803  -49.4217  -17.8508 C   0  0  0  0  0  0  0  0  0  0  0  0
    0.5880  -49.3926  -16.4337 C   0  0  0  0  0  0  0  0  0  0  0  0
   -0.7424  -49.2127  -16.1170 O   0  0  0  0  0  0  0  0  0  0  0  0
    1.4100  -49.5239  -15.5090 O   0  0  0  0  0  0  0  0  0  0  0  0
   -1.2712  -49.7522  -15.4757 H   0  0  0  0  0  0  0  0  0  0  0  0
 22 23  1  0  0  0
 23 24  1  0  0  0
 23 17  1  0  0  0
 17 13  1  0  0  0
 13 14  1  0  0  0
 14 15  2  0  0  0
 14 12  1  0  0  0
 12 25  1  0  0  0
 25 26  1  0  0  0
 26 27  2  0  0  0
 27 28  1  0  0  0
 28 29  2  0  0  0
 29 30  1  0  0  0
 29 31  1  0  0  0
 31 32  2  0  0  0
 12  8  1  0  0  0
  8  9  1  0  0  0
  9 10  2  0  0  0
  9  1  1  0  0  0
  1  2  1  0  0  0
  2  3  1  0  0  0
  3  4  1  0  0  0
  4  5  1  0  0  0
  5  6  1  0  0  0
  6  7  2  0  0  0
  6 34  1  0  0  0
 34 52  1  0  0  0
 52 53  1  0  0  0
 53 54  1  0  0  0
 53 55  2  0  0  0
 34 35  1  0  0  0
 35 36  1  0  0  0
 36 37  2  0  0  0
 36 39  1  0  0  0
 39 45  1  0  0  0
 45 46  1  0  0  0
 46 47  2  0  0  0
 47 48  1  0  0  0
 48 49  2  0  0  0
 49 50  1  0  0  0
 50 51  2  0  0  0
 39 40  1  0  0  0
 40 41  1  0  0  0
 41 42  1  0  0  0
 41 43  2  0  0  0
 17 18  1  0  0  0
 18 19  1  0  0  0
 18 20  2  0  0  0
 32 26  1  0  0  0
  5  1  1  0  0  0
 51 46  1  0  0  0
 13 16  1  0  0  0
 30 33  1  0  0  0
  8 11  1  0  0  0
 54 56  1  0  0  0
 35 38  1  0  0  0
 40 44  1  0  0  0
 19 21  1  0  0  0
M  END
> <minimizedAffinity>
-6.98280

> <CNNscore>
0.1933528930

> <CNNaffinity>
7.0303468704

> <CNN_VS>
1.3593379259

> <CNNaffinity_variance>
0.1918744147

$$$$
[H]OC(=O)C([H])([H])[C@@]([H])(C(=O)N1C([H])([H])C([H])([H])C([H])([H])[C@@]1([H])C(=O)N([H])[C@]([H])(C(=O)N([H])[C@]([H])(C(=O)O[H])C([H])(C([H])([H])[H])C([H])([H])[H])C([H])([H])c1c([H])c([H])c(O[H])c([H])c1[H])N([H])C(=O)[C@@]([H])(N([H])C(=O)C([H])([H])[H])C([H])([H])c1c([H])c([H])c([H])c([H])c1[H]


 56 58  0  0  0  0  0  0  0  0999 V2000
    4.4492  -50.8575  -24.1107 C   0  0  0  0  0  0  0  0  0  0  0  0
    5.8196  -51.3783  -23.7186 C   0  0  0  0  0  0  0  0  0  0  0  0
    5.9092  -51.0994  -22.2406 C   0  0  0  0  0  0  0  0  0  0  0  0
    4.7184  -50.2734  -21.8999 C   0  0  0  0  0  0  0  0  0  0  0  0
    4.2064  -49.7992  -23.1644 N   0  0  0  0  0  0  0  0  0  0  0  0
    3.5981  -48.5595  -23.4950 C   0  0  0  0  0  0  0  0  0  0  0  0
    3.2667  -48.3404  -24.6966 O   0  0  0  0  0  0  0  0  0  0  0  0
    2.0812  -51.5349  -23.7053 N   0  0  0  0  0  0  0  0  0  0  0  0
    3.4164  -51.9235  -23.9273 C   0  0  0  0  0  0  0  0  0  0  0  0
    3.8026  -53.1109  -23.9840 O   0  0  0  0  0  0  0  0  0  0  0  0
    1.8557  -50.5166  -23.6722 H   0  0  0  0  0  0  0  0  0  0  0  0
    0.9590  -52.4489  -23.5114 C   0  0  0  0  0  0  0  0  0  0  0  0
    0.8300  -52.4635  -26.0872 N   0  0  0  0  0  0  0  0  0  0  0  0
    0.6793  -53.0515  -24.8015 C   0  0  0  0  0  0  0  0  0  0  0  0
    0.2479  -54.2367  -24.8127 O   0  0  0  0  0  0  0  0  0  0  0  0
    1.2074  -51.4977  -26.1204 H   0  0  0  0  0  0  0  0  0  0  0  0
    0.4957  -53.1299  -27.3243 C   0  0  0  0  0  0  0  0  0  0  0  0
    1.6322  -53.4284  -28.1896 C   0  0  0  0  0  0  0  0  0  0  0  0
    2.4805  -52.4262  -28.5913 O   0  0  0  0  0  0  0  0  0  0  0  0
    1.8612  -54.5873  -28.5843 O   0  0  0  0  0  0  0  0  0  0  0  0
    2.1373  -51.8058  -29.3338 H   0  0  0  0  0  0  0  0  0  0  0  0
   -0.9220  -52.9322  -29.3766 C   0  0  0  0  0  0  0  0  0  0  0  0
   -0.6199  -52.4091  -28.0030 C   0  0  0  0  0  0  0  0  0  0  0  0
   -1.8664  -52.2926  -27.1568 C   0  0  0  0  0  0  0  0  0  0  0  0
   -0.0897  -51.7997  -22.7271 C   0  0  0  0  0  0  0  0  0  0  0  0
    0.0925  -51.5518  -21.3181 C   0  0  0  0  0  0  0  0  0  0  0  0
    0.6065  -50.4068  -20.7878 C   0  0  0  0  0  0  0  0  0  0  0  0
    0.7363  -50.2629  -19.4091 C   0  0  0  0  0  0  0  0  0  0  0  0
    0.3653  -51.2389  -18.5150 C   0  0  0  0  0  0  0  0  0  0  0  0
    0.4811  -51.1291  -17.1315 O   0  0  0  0  0  0  0  0  0  0  0  0
   -0.1599  -52.4075  -19.0704 C   0  0  0  0  0  0  0  0  0  0  0  0
   -0.2816  -52.5356  -20.4187 C   0  0  0  0  0  0  0  0  0  0  0  0
    1.3270  -51.4349  -16.6636 H   0  0  0  0  0  0  0  0  0  0  0  0
    3.3141  -47.4774  -22.5342 C   0  0  0  0  0  0  0  0  0  0  0  0
    4.4999  -46.9494  -21.9060 N   0  0  0  0  0  0  0  0  0  0  0  0
    4.6741  -47.0045  -20.4802 C   0  0  0  0  0  0  0  0  0  0  0  0
    3.7240  -47.5388  -19.8271 O   0  0  0  0  0  0  0  0  0  0  0  0
    5.2882  -46.5084  -22.4333 H   0  0  0  0  0  0  0  0  0  0  0  0
    5.8595  -46.4848  -19.7861 C   0  0  0  0  0  0  0  0  0  0  0  0
    7.0473  -46.8792  -20.5235 N   0  0  0  0  0  0  0  0  0  0  0  0
    7.9776  -47.7845  -19.9345 C   0  0  0  0  0  0  0  0  0  0  0  0
    9.2011  -48.1963  -20.6952 C   0  0  0  0  0  0  0  0  0  0  0  0
    7.7755  -48.2313  -18.7952 O   0  0  0  0  0  0  0  0  0  0  0  0
    7.2050  -46.4894  -21.4854 H   0  0  0  0  0  0  0  0  0  0  0  0
    5.8313  -44.9868  -19.5860 C   0  0  0  0  0  0  0  0  0  0  0  0
    6.7826  -44.5801  -18.4910 C   0  0  0  0  0  0  0  0  0  0  0  0
    7.8687  -43.7872  -18.7665 C   0  0  0  0  0  0  0  0  0  0  0  0
    8.7125  -43.4327  -17.7420 C   0  0  0  0  0  0  0  0  0  0  0  0
    8.5306  -43.8356  -16.4197 C   0  0  0  0  0  0  0  0  0  0  0  0
    7.4247  -44.6319  -16.1964 C   0  0  0  0  0  0  0  0  0  0  0  0
    6.5667  -44.9989  -17.2051 C   0  0  0  0  0  0  0  0  0  0  0  0
    2.5792  -46.3385  -23.2076 C   0  0  0  0  0  0  0  0  0  0  0  0
    3.4296  -45.1602  -23.4347 C   0  0  0  0  0  0  0  0  0  0  0  0
    3.5183  -44.2050  -22.4435 O   0  0  0  0  0  0  0  0  0  0  0  0
    4.0722  -44.9914  -24.4866 O   0  0  0  0  0  0  0  0  0  0  0  0
    4.3517  -43.8039  -22.0878 H   0  0  0  0  0  0  0  0  0  0  0  0
 22 23  1  0  0  0
 23 24  1  0  0  0
 23 17  1  0  0  0
 17 13  1  0  0  0
 13 14  1  0  0  0
 14 15  2  0  0  0
 14 12  1  0  0  0
 12 25  1  0  0  0
 25 26  1  0  0  0
 26 27  2  0  0  0
 27 28  1  0  0  0
 28 29  2  0  0  0
 29 30  1  0  0  0
 29 31  1  0  0  0
 31 32  2  0  0  0
 12  8  1  0  0  0
  8  9  1  0  0  0
  9 10  2  0  0  0
  9  1  1  0  0  0
  1  2  1  0  0  0
  2  3  1  0  0  0
  3  4  1  0  0  0
  4  5  1  0  0  0
  5  6  1  0  0  0
  6  7  2  0  0  0
  6 34  1  0  0  0
 34 52  1  0  0  0
 52 53  1  0  0  0
 53 54  1  0  0  0
 53 55  2  0  0  0
 34 35  1  0  0  0
 35 36  1  0  0  0
 36 37  2  0  0  0
 36 39  1  0  0  0
 39 45  1  0  0  0
 45 46  1  0  0  0
 46 47  2  0  0  0
 47 48  1  0  0  0
 48 49  2  0  0  0
 49 50  1  0  0  0
 50 51  2  0  0  0
 39 40  1  0  0  0
 40 41  1  0  0  0
 41 42  1  0  0  0
 41 43  2  0  0  0
 17 18  1  0  0  0
 18 19  1  0  0  0
 18 20  2  0  0  0
 32 26  1  0  0  0
  5  1  1  0  0  0
 51 46  1  0  0  0
 13 16  1  0  0  0
 30 33  1  0  0  0
  8 11  1  0  0  0
 54 56  1  0  0  0
 35 38  1  0  0  0
 40 44  1  0  0  0
 19 21  1  0  0  0
M  END
> <minimizedAffinity>
-7.10885

> <CNNscore>
0.1222354621

> <CNNaffinity>
6.7236375809

> <CNN_VS>
0.8218669295

> <CNNaffinity_variance>
0.4622097015

$$$$
[H]OC(=O)C([H])([H])[C@@]([H])(C(=O)N1C([H])([H])C([H])([H])C([H])([H])[C@@]1([H])C(=O)N([H])[C@]([H])(C(=O)N([H])[C@]([H])(C(=O)O[H])C([H])(C([H])([H])[H])C([H])([H])[H])C([H])([H])c1c([H])c([H])c(O[H])c([H])c1[H])N([H])C(=O)[C@@]([H])(N([H])C(=O)C([H])([H])[H])C([H])([H])c1c([H])c([H])c([H])c([H])c1[H]


 56 58  0  0  0  0  0  0  0  0999 V2000
    4.4234  -51.1316  -24.2694 C   0  0  0  0  0  0  0  0  0  0  0  0
    5.7136  -51.5844  -23.6111 C   0  0  0  0  0  0  0  0  0  0  0  0
    5.6200  -51.0420  -22.2084 C   0  0  0  0  0  0  0  0  0  0  0  0
    4.4228  -50.1574  -22.1832 C   0  0  0  0  0  0  0  0  0  0  0  0
    4.0949  -49.9167  -23.5690 N   0  0  0  0  0  0  0  0  0  0  0  0
    3.5756  -48.7526  -24.1945 C   0  0  0  0  0  0  0  0  0  0  0  0
    3.4101  -48.7529  -25.4493 O   0  0  0  0  0  0  0  0  0  0  0  0
    2.0254  -51.6757  -23.8402 N   0  0  0  0  0  0  0  0  0  0  0  0
    3.3411  -52.1374  -24.0374 C   0  0  0  0  0  0  0  0  0  0  0  0
    3.6709  -53.3429  -24.0335 O   0  0  0  0  0  0  0  0  0  0  0  0
    1.8482  -50.6475  -23.8586 H   0  0  0  0  0  0  0  0  0  0  0  0
    0.8610  -52.5250  -23.6056 C   0  0  0  0  0  0  0  0  0  0  0  0
    0.5572  -52.5456  -26.1667 N   0  0  0  0  0  0  0  0  0  0  0  0
    0.5269  -53.1414  -24.8761 C   0  0  0  0  0  0  0  0  0  0  0  0
    0.1607  -54.3483  -24.8628 O   0  0  0  0  0  0  0  0  0  0  0  0
    0.8785  -51.5606  -26.2215 H   0  0  0  0  0  0  0  0  0  0  0  0
    0.1758  -53.2287  -27.3808 C   0  0  0  0  0  0  0  0  0  0  0  0
    1.2846  -53.5930  -28.2567 C   0  0  0  0  0  0  0  0  0  0  0  0
    2.0451  -52.6189  -28.8552 O   0  0  0  0  0  0  0  0  0  0  0  0
    1.5683  -54.7843  -28.4843 O   0  0  0  0  0  0  0  0  0  0  0  0
    1.6257  -52.1412  -29.6615 H   0  0  0  0  0  0  0  0  0  0  0  0
   -1.2134  -52.9745  -29.4463 C   0  0  0  0  0  0  0  0  0  0  0  0
   -0.9225  -52.4816  -28.0593 C   0  0  0  0  0  0  0  0  0  0  0  0
   -2.1781  -52.3662  -27.2265 C   0  0  0  0  0  0  0  0  0  0  0  0
   -0.1382  -51.8041  -22.8193 C   0  0  0  0  0  0  0  0  0  0  0  0
    0.0409  -51.6117  -21.4012 C   0  0  0  0  0  0  0  0  0  0  0  0
    0.4705  -50.4571  -20.8190 C   0  0  0  0  0  0  0  0  0  0  0  0
    0.6052  -50.3709  -19.4359 C   0  0  0  0  0  0  0  0  0  0  0  0
    0.3218  -51.4154  -18.5884 C   0  0  0  0  0  0  0  0  0  0  0  0
    0.4452  -51.3644  -17.2020 O   0  0  0  0  0  0  0  0  0  0  0  0
   -0.1174  -52.5931  -19.1967 C   0  0  0  0  0  0  0  0  0  0  0  0
   -0.2448  -52.6644  -20.5486 C   0  0  0  0  0  0  0  0  0  0  0  0
    1.3179  -51.6255  -16.7567 H   0  0  0  0  0  0  0  0  0  0  0  0
    3.2051  -47.5113  -23.4898 C   0  0  0  0  0  0  0  0  0  0  0  0
    4.0183  -47.2535  -22.3271 N   0  0  0  0  0  0  0  0  0  0  0  0
    3.4588  -47.2950  -21.0037 C   0  0  0  0  0  0  0  0  0  0  0  0
    2.2193  -47.5666  -20.9353 O   0  0  0  0  0  0  0  0  0  0  0  0
    5.0391  -47.0299  -22.3712 H   0  0  0  0  0  0  0  0  0  0  0  0
    4.2377  -47.0427  -19.7843 C   0  0  0  0  0  0  0  0  0  0  0  0
    5.4078  -46.2536  -20.1282 N   0  0  0  0  0  0  0  0  0  0  0  0
    6.6996  -46.6819  -19.7041 C   0  0  0  0  0  0  0  0  0  0  0  0
    7.9083  -45.8718  -20.0617 C   0  0  0  0  0  0  0  0  0  0  0  0
    6.8238  -47.7228  -19.0412 O   0  0  0  0  0  0  0  0  0  0  0  0
    5.2848  -45.3735  -20.6870 H   0  0  0  0  0  0  0  0  0  0  0  0
    3.4426  -46.3659  -18.6915 C   0  0  0  0  0  0  0  0  0  0  0  0
    3.5298  -47.1506  -17.4085 C   0  0  0  0  0  0  0  0  0  0  0  0
    4.3219  -46.7161  -16.3750 C   0  0  0  0  0  0  0  0  0  0  0  0
    4.3736  -47.4553  -15.2182 C   0  0  0  0  0  0  0  0  0  0  0  0
    3.6604  -48.6380  -15.0272 C   0  0  0  0  0  0  0  0  0  0  0  0
    2.8803  -49.0313  -16.0966 C   0  0  0  0  0  0  0  0  0  0  0  0
    2.8124  -48.3081  -17.2631 C   0  0  0  0  0  0  0  0  0  0  0  0
    3.2987  -46.3178  -24.4159 C   0  0  0  0  0  0  0  0  0  0  0  0
    2.6332  -45.1208  -23.8799 C   0  0  0  0  0  0  0  0  0  0  0  0
    3.3713  -44.2332  -23.1248 O   0  0  0  0  0  0  0  0  0  0  0  0
    1.4298  -44.8776  -24.0812 O   0  0  0  0  0  0  0  0  0  0  0  0
    3.3985  -43.2490  -23.2360 H   0  0  0  0  0  0  0  0  0  0  0  0
 22 23  1  0  0  0
 23 24  1  0  0  0
 23 17  1  0  0  0
 17 13  1  0  0  0
 13 14  1  0  0  0
 14 15  2  0  0  0
 14 12  1  0  0  0
 12 25  1  0  0  0
 25 26  1  0  0  0
 26 27  2  0  0  0
 27 28  1  0  0  0
 28 29  2  0  0  0
 29 30  1  0  0  0
 29 31  1  0  0  0
 31 32  2  0  0  0
 12  8  1  0  0  0
  8  9  1  0  0  0
  9 10  2  0  0  0
  9  1  1  0  0  0
  1  2  1  0  0  0
  2  3  1  0  0  0
  3  4  1  0  0  0
  4  5  1  0  0  0
  5  6  1  0  0  0
  6  7  2  0  0  0
  6 34  1  0  0  0
 34 52  1  0  0  0
 52 53  1  0  0  0
 53 54  1  0  0  0
 53 55  2  0  0  0
 34 35  1  0  0  0
 35 36  1  0  0  0
 36 37  2  0  0  0
 36 39  1  0  0  0
 39 45  1  0  0  0
 45 46  1  0  0  0
 46 47  2  0  0  0
 47 48  1  0  0  0
 48 49  2  0  0  0
 49 50  1  0  0  0
 50 51  2  0  0  0
 39 40  1  0  0  0
 40 41  1  0  0  0
 41 42  1  0  0  0
 41 43  2  0  0  0
 17 18  1  0  0  0
 18 19  1  0  0  0
 18 20  2  0  0  0
 32 26  1  0  0  0
  5  1  1  0  0  0
 51 46  1  0  0  0
 13 16  1  0  0  0
 30 33  1  0  0  0
  8 11  1  0  0  0
 54 56  1  0  0  0
 35 38  1  0  0  0
 40 44  1  0  0  0
 19 21  1  0  0  0
M  END
> <minimizedAffinity>
-7.57193

> <CNNscore>
0.1151800454

> <CNNaffinity>
6.7047514915

> <CNN_VS>
0.7722535729

> <CNNaffinity_variance>
0.3471235633

$$$$
[H]OC(=O)C([H])([H])[C@@]([H])(C(=O)N1C([H])([H])C([H])([H])C([H])([H])[C@@]1([H])C(=O)N([H])[C@]([H])(C(=O)N([H])[C@]([H])(C(=O)O[H])C([H])(C([H])([H])[H])C([H])([H])[H])C([H])([H])c1c([H])c([H])c(O[H])c([H])c1[H])N([H])C(=O)[C@@]([H])(N([H])C(=O)C([H])([H])[H])C([H])([H])c1c([H])c([H])c([H])c([H])c1[H]


 56 58  0  0  0  0  0  0  0  0999 V2000
    4.3278  -51.3132  -21.4627 C   0  0  0  0  0  0  0  0  0  0  0  0
    4.8917  -50.0150  -20.9153 C   0  0  0  0  0  0  0  0  0  0  0  0
    4.1755  -48.9449  -21.6980 C   0  0  0  0  0  0  0  0  0  0  0  0
    3.4137  -49.6494  -22.7656 C   0  0  0  0  0  0  0  0  0  0  0  0
    3.9697  -50.9814  -22.8177 N   0  0  0  0  0  0  0  0  0  0  0  0
    4.1749  -51.8413  -23.9289 C   0  0  0  0  0  0  0  0  0  0  0  0
    4.7314  -52.9625  -23.7418 O   0  0  0  0  0  0  0  0  0  0  0  0
    1.8886  -51.8418  -21.4266 N   0  0  0  0  0  0  0  0  0  0  0  0
    3.0938  -51.7010  -20.7120 C   0  0  0  0  0  0  0  0  0  0  0  0
    3.2056  -51.8810  -19.4802 O   0  0  0  0  0  0  0  0  0  0  0  0
    1.8940  -51.6678  -22.4555 H   0  0  0  0  0  0  0  0  0  0  0  0
    0.6028  -52.2163  -20.8444 C   0  0  0  0  0  0  0  0  0  0  0  0
    0.1154  -52.8019  -23.3084 N   0  0  0  0  0  0  0  0  0  0  0  0
   -0.2300  -52.6912  -21.9336 C   0  0  0  0  0  0  0  0  0  0  0  0
   -1.4060  -53.0533  -21.6563 O   0  0  0  0  0  0  0  0  0  0  0  0
    1.0836  -52.5378  -23.5718 H   0  0  0  0  0  0  0  0  0  0  0  0
   -0.7923  -53.2581  -24.3351 C   0  0  0  0  0  0  0  0  0  0  0  0
   -0.7128  -54.6833  -24.6384 C   0  0  0  0  0  0  0  0  0  0  0  0
   -0.0898  -55.1153  -25.7832 O   0  0  0  0  0  0  0  0  0  0  0  0
   -1.2033  -55.5378  -23.8765 O   0  0  0  0  0  0  0  0  0  0  0  0
   -0.6137  -55.0053  -26.6592 H   0  0  0  0  0  0  0  0  0  0  0  0
   -2.0269  -51.9085  -26.0424 C   0  0  0  0  0  0  0  0  0  0  0  0
   -0.6945  -52.3699  -25.5294 C   0  0  0  0  0  0  0  0  0  0  0  0
    0.2698  -51.2205  -25.3494 C   0  0  0  0  0  0  0  0  0  0  0  0
    0.1426  -51.1750  -19.9277 C   0  0  0  0  0  0  0  0  0  0  0  0
   -0.1212  -51.4786  -18.5427 C   0  0  0  0  0  0  0  0  0  0  0  0
   -0.8976  -52.5089  -18.1043 C   0  0  0  0  0  0  0  0  0  0  0  0
   -1.0857  -52.7215  -16.7413 C   0  0  0  0  0  0  0  0  0  0  0  0
   -0.5170  -51.9286  -15.7732 C   0  0  0  0  0  0  0  0  0  0  0  0
   -0.6837  -52.1118  -14.4026 O   0  0  0  0  0  0  0  0  0  0  0  0
    0.2763  -50.8761  -16.2347 C   0  0  0  0  0  0  0  0  0  0  0  0
    0.4521  -50.6791  -17.5686 C   0  0  0  0  0  0  0  0  0  0  0  0
   -1.4451  -51.6534  -13.9147 H   0  0  0  0  0  0  0  0  0  0  0  0
    3.7870  -51.5312  -25.3174 C   0  0  0  0  0  0  0  0  0  0  0  0
    4.5437  -50.4452  -25.8897 N   0  0  0  0  0  0  0  0  0  0  0  0
    3.8935  -49.2546  -26.3654 C   0  0  0  0  0  0  0  0  0  0  0  0
    2.6283  -49.2315  -26.2498 O   0  0  0  0  0  0  0  0  0  0  0  0
    5.5849  -50.4528  -25.9892 H   0  0  0  0  0  0  0  0  0  0  0  0
    4.6117  -48.1175  -26.9556 C   0  0  0  0  0  0  0  0  0  0  0  0
    4.8504  -48.3905  -28.3622 N   0  0  0  0  0  0  0  0  0  0  0  0
    6.1751  -48.3142  -28.8829 C   0  0  0  0  0  0  0  0  0  0  0  0
    6.4242  -48.5999  -30.3326 C   0  0  0  0  0  0  0  0  0  0  0  0
    7.1203  -48.0127  -28.1384 O   0  0  0  0  0  0  0  0  0  0  0  0
    4.0390  -48.6411  -28.9793 H   0  0  0  0  0  0  0  0  0  0  0  0
    3.8943  -46.7982  -26.7845 C   0  0  0  0  0  0  0  0  0  0  0  0
    4.0219  -46.3051  -25.3668 C   0  0  0  0  0  0  0  0  0  0  0  0
    5.2519  -46.2212  -24.7631 C   0  0  0  0  0  0  0  0  0  0  0  0
    5.3304  -45.7630  -23.4704 C   0  0  0  0  0  0  0  0  0  0  0  0
    4.2202  -45.3726  -22.7226 C   0  0  0  0  0  0  0  0  0  0  0  0
    3.0078  -45.4770  -23.3753 C   0  0  0  0  0  0  0  0  0  0  0  0
    2.9048  -45.9320  -24.6678 C   0  0  0  0  0  0  0  0  0  0  0  0
    3.9447  -52.7469  -26.2049 C   0  0  0  0  0  0  0  0  0  0  0  0
    3.0271  -52.7424  -27.3543 C   0  0  0  0  0  0  0  0  0  0  0  0
    3.3177  -51.9322  -28.4322 O   0  0  0  0  0  0  0  0  0  0  0  0
    1.9984  -53.4412  -27.3921 O   0  0  0  0  0  0  0  0  0  0  0  0
    3.3120  -52.2001  -29.3862 H   0  0  0  0  0  0  0  0  0  0  0  0
 22 23  1  0  0  0
 23 24  1  0  0  0
 23 17  1  0  0  0
 17 13  1  0  0  0
 13 14  1  0  0  0
 14 15  2  0  0  0
 14 12  1  0  0  0
 12 25  1  0  0  0
 25 26  1  0  0  0
 26 27  2  0  0  0
 27 28  1  0  0  0
 28 29  2  0  0  0
 29 30  1  0  0  0
 29 31  1  0  0  0
 31 32  2  0  0  0
 12  8  1  0  0  0
  8  9  1  0  0  0
  9 10  2  0  0  0
  9  1  1  0  0  0
  1  2  1  0  0  0
  2  3  1  0  0  0
  3  4  1  0  0  0
  4  5  1  0  0  0
  5  6  1  0  0  0
  6  7  2  0  0  0
  6 34  1  0  0  0
 34 52  1  0  0  0
 52 53  1  0  0  0
 53 54  1  0  0  0
 53 55  2  0  0  0
 34 35  1  0  0  0
 35 36  1  0  0  0
 36 37  2  0  0  0
 36 39  1  0  0  0
 39 45  1  0  0  0
 45 46  1  0  0  0
 46 47  2  0  0  0
 47 48  1  0  0  0
 48 49  2  0  0  0
 49 50  1  0  0  0
 50 51  2  0  0  0
 39 40  1  0  0  0
 40 41  1  0  0  0
 41 42  1  0  0  0
 41 43  2  0  0  0
 17 18  1  0  0  0
 18 19  1  0  0  0
 18 20  2  0  0  0
 32 26  1  0  0  0
  5  1  1  0  0  0
 51 46  1  0  0  0
 13 16  1  0  0  0
 30 33  1  0  0  0
  8 11  1  0  0  0
 54 56  1  0  0  0
 35 38  1  0  0  0
 40 44  1  0  0  0
 19 21  1  0  0  0
M  END
> <minimizedAffinity>
-7.93797

> <CNNscore>
0.1060072109

> <CNNaffinity>
6.7314186096

> <CNN_VS>
0.7135789394

> <CNNaffinity_variance>
0.5356855989

$$$$
[H]OC(=O)C([H])([H])[C@@]([H])(C(=O)N1C([H])([H])C([H])([H])C([H])([H])[C@@]1([H])C(=O)N([H])[C@]([H])(C(=O)N([H])[C@]([H])(C(=O)O[H])C([H])(C([H])([H])[H])C([H])([H])[H])C([H])([H])c1c([H])c([H])c(O[H])c([H])c1[H])N([H])C(=O)[C@@]([H])(N([H])C(=O)C([H])([H])[H])C([H])([H])c1c([H])c([H])c([H])c([H])c1[H]


 56 58  0  0  0  0  0  0  0  0999 V2000
    0.8709  -53.3037  -21.4174 C   0  0  0  0  0  0  0  0  0  0  0  0
   -0.4591  -54.0151  -21.2499 C   0  0  0  0  0  0  0  0  0  0  0  0
   -1.3936  -52.9368  -20.7660 C   0  0  0  0  0  0  0  0  0  0  0  0
   -0.5456  -51.7455  -20.4866 C   0  0  0  0  0  0  0  0  0  0  0  0
    0.8104  -52.2411  -20.4471 N   0  0  0  0  0  0  0  0  0  0  0  0
    1.9059  -51.8374  -19.6390 C   0  0  0  0  0  0  0  0  0  0  0  0
    3.0052  -52.4560  -19.7430 O   0  0  0  0  0  0  0  0  0  0  0  0
    2.2152  -52.1921  -23.2028 N   0  0  0  0  0  0  0  0  0  0  0  0
    0.9738  -52.7104  -22.7864 C   0  0  0  0  0  0  0  0  0  0  0  0
   -0.0594  -52.7104  -23.4897 O   0  0  0  0  0  0  0  0  0  0  0  0
    3.0220  -52.2352  -22.5424 H   0  0  0  0  0  0  0  0  0  0  0  0
    2.4807  -51.5848  -24.5039 C   0  0  0  0  0  0  0  0  0  0  0  0
    0.8196  -52.2778  -26.3511 N   0  0  0  0  0  0  0  0  0  0  0  0
    1.9441  -52.4863  -25.5064 C   0  0  0  0  0  0  0  0  0  0  0  0
    2.5238  -53.5949  -25.6669 O   0  0  0  0  0  0  0  0  0  0  0  0
    0.3318  -51.3660  -26.2667 H   0  0  0  0  0  0  0  0  0  0  0  0
    0.3344  -53.2485  -27.3043 C   0  0  0  0  0  0  0  0  0  0  0  0
    1.0791  -53.3061  -28.5579 C   0  0  0  0  0  0  0  0  0  0  0  0
    2.1593  -54.1441  -28.6853 O   0  0  0  0  0  0  0  0  0  0  0  0
    0.7601  -52.6037  -29.5358 O   0  0  0  0  0  0  0  0  0  0  0  0
    3.0306  -53.8401  -28.2353 H   0  0  0  0  0  0  0  0  0  0  0  0
   -1.7618  -52.1501  -26.4918 C   0  0  0  0  0  0  0  0  0  0  0  0
   -1.1403  -53.1004  -27.4726 C   0  0  0  0  0  0  0  0  0  0  0  0
   -1.5583  -52.7990  -28.8930 C   0  0  0  0  0  0  0  0  0  0  0  0
    3.8609  -51.1076  -24.5650 C   0  0  0  0  0  0  0  0  0  0  0  0
    4.5197  -50.6093  -23.3827 C   0  0  0  0  0  0  0  0  0  0  0  0
    5.4285  -51.3058  -22.6441 C   0  0  0  0  0  0  0  0  0  0  0  0
    6.0140  -50.7311  -21.5192 C   0  0  0  0  0  0  0  0  0  0  0  0
    5.7228  -49.4582  -21.0899 C   0  0  0  0  0  0  0  0  0  0  0  0
    6.2886  -48.8525  -19.9706 O   0  0  0  0  0  0  0  0  0  0  0  0
    4.7903  -48.7544  -21.8548 C   0  0  0  0  0  0  0  0  0  0  0  0
    4.2256  -49.3270  -22.9513 C   0  0  0  0  0  0  0  0  0  0  0  0
    5.8470  -48.9433  -19.0624 H   0  0  0  0  0  0  0  0  0  0  0  0
    1.8711  -50.7325  -18.6630 C   0  0  0  0  0  0  0  0  0  0  0  0
    1.3055  -51.1141  -17.3925 N   0  0  0  0  0  0  0  0  0  0  0  0
    0.4718  -50.2106  -16.6476 C   0  0  0  0  0  0  0  0  0  0  0  0
    0.2766  -49.0728  -17.1786 O   0  0  0  0  0  0  0  0  0  0  0  0
    1.4586  -52.0477  -16.9464 H   0  0  0  0  0  0  0  0  0  0  0  0
   -0.1319  -50.5445  -15.3509 C   0  0  0  0  0  0  0  0  0  0  0  0
    0.7637  -50.1159  -14.2906 N   0  0  0  0  0  0  0  0  0  0  0  0
    1.7867  -50.9952  -13.8299 C   0  0  0  0  0  0  0  0  0  0  0  0
    2.7145  -50.5533  -12.7394 C   0  0  0  0  0  0  0  0  0  0  0  0
    1.9098  -52.1234  -14.3303 O   0  0  0  0  0  0  0  0  0  0  0  0
    0.6439  -49.1591  -13.8756 H   0  0  0  0  0  0  0  0  0  0  0  0
   -1.5081  -49.9503  -15.1569 C   0  0  0  0  0  0  0  0  0  0  0  0
   -2.5737  -50.9740  -15.4498 C   0  0  0  0  0  0  0  0  0  0  0  0
   -2.3514  -51.9737  -16.3638 C   0  0  0  0  0  0  0  0  0  0  0  0
   -3.3447  -52.8922  -16.6024 C   0  0  0  0  0  0  0  0  0  0  0  0
   -4.5838  -52.8703  -15.9635 C   0  0  0  0  0  0  0  0  0  0  0  0
   -4.7568  -51.8450  -15.0548 C   0  0  0  0  0  0  0  0  0  0  0  0
   -3.7777  -50.9152  -14.7995 C   0  0  0  0  0  0  0  0  0  0  0  0
    3.2600  -50.1807  -18.4244 C   0  0  0  0  0  0  0  0  0  0  0  0
    3.7507  -50.4289  -17.0603 C   0  0  0  0  0  0  0  0  0  0  0  0
    3.8703  -49.3622  -16.1939 O   0  0  0  0  0  0  0  0  0  0  0  0
    4.0623  -51.5640  -16.6574 O   0  0  0  0  0  0  0  0  0  0  0  0
    3.5388  -49.3239  -15.2609 H   0  0  0  0  0  0  0  0  0  0  0  0
 22 23  1  0  0  0
 23 24  1  0  0  0
 23 17  1  0  0  0
 17 13  1  0  0  0
 13 14  1  0  0  0
 14 15  2  0  0  0
 14 12  1  0  0  0
 12 25  1  0  0  0
 25 26  1  0  0  0
 26 27  2  0  0  0
 27 28  1  0  0  0
 28 29  2  0  0  0
 29 30  1  0  0  0
 29 31  1  0  0  0
 31 32  2  0  0  0
 12  8  1  0  0  0
  8  9  1  0  0  0
  9 10  2  0  0  0
  9  1  1  0  0  0
  1  2  1  0  0  0
  2  3  1  0  0  0
  3  4  1  0  0  0
  4  5  1  0  0  0
  5  6  1  0  0  0
  6  7  2  0  0  0
  6 34  1  0  0  0
 34 52  1  0  0  0
 52 53  1  0  0  0
 53 54  1  0  0  0
 53 55  2  0  0  0
 34 35  1  0  0  0
 35 36  1  0  0  0
 36 37  2  0  0  0
 36 39  1  0  0  0
 39 45  1  0  0  0
 45 46  1  0  0  0
 46 47  2  0  0  0
 47 48  1  0  0  0
 48 49  2  0  0  0
 49 50  1  0  0  0
 50 51  2  0  0  0
 39 40  1  0  0  0
 40 41  1  0  0  0
 41 42  1  0  0  0
 41 43  2  0  0  0
 17 18  1  0  0  0
 18 19  1  0  0  0
 18 20  2  0  0  0
 32 26  1  0  0  0
  5  1  1  0  0  0
 51 46  1  0  0  0
 13 16  1  0  0  0
 30 33  1  0  0  0
  8 11  1  0  0  0
 54 56  1  0  0  0
 35 38  1  0  0  0
 40 44  1  0  0  0
 19 21  1  0  0  0
M  END
> <minimizedAffinity>
-8.38814

> <CNNscore>
0.1038435549

> <CNNaffinity>
6.9005494118

> <CNN_VS>
0.7165775895

> <CNNaffinity_variance>
0.1934850812

$$$$
[H]OC(=O)C([H])([H])[C@@]([H])(C(=O)N1C([H])([H])C([H])([H])C([H])([H])[C@@]1([H])C(=O)N([H])[C@]([H])(C(=O)N([H])[C@]([H])(C(=O)O[H])C([H])(C([H])([H])[H])C([H])([H])[H])C([H])([H])c1c([H])c([H])c(O[H])c([H])c1[H])N([H])C(=O)[C@@]([H])(N([H])C(=O)C([H])([H])[H])C([H])([H])c1c([H])c([H])c([H])c([H])c1[H]


 56 58  0  0  0  0  0  0  0  0999 V2000
    6.8971  -50.4314  -23.0842 C   0  0  0  0  0  0  0  0  0  0  0  0
    8.2232  -50.2585  -23.8015 C   0  0  0  0  0  0  0  0  0  0  0  0
    7.9378  -49.2198  -24.8551 C   0  0  0  0  0  0  0  0  0  0  0  0
    6.4653  -49.0011  -24.8360 C   0  0  0  0  0  0  0  0  0  0  0  0
    5.9218  -50.1160  -24.0960 N   0  0  0  0  0  0  0  0  0  0  0  0
    4.7036  -50.8230  -24.2756 C   0  0  0  0  0  0  0  0  0  0  0  0
    4.4533  -51.8130  -23.5279 O   0  0  0  0  0  0  0  0  0  0  0  0
    5.5648  -48.7477  -21.8111 N   0  0  0  0  0  0  0  0  0  0  0  0
    6.7785  -49.4447  -21.9666 C   0  0  0  0  0  0  0  0  0  0  0  0
    7.7744  -49.2955  -21.2263 O   0  0  0  0  0  0  0  0  0  0  0  0
    4.7888  -48.9389  -22.4821 H   0  0  0  0  0  0  0  0  0  0  0  0
    5.2886  -47.7582  -20.7734 C   0  0  0  0  0  0  0  0  0  0  0  0
    3.6587  -49.5287  -19.8457 N   0  0  0  0  0  0  0  0  0  0  0  0
    4.0883  -48.1945  -20.0847 C   0  0  0  0  0  0  0  0  0  0  0  0
    3.3146  -47.3050  -19.6362 O   0  0  0  0  0  0  0  0  0  0  0  0
    4.2822  -50.2889  -20.1771 H   0  0  0  0  0  0  0  0  0  0  0  0
    2.4267  -49.8727  -19.1751 C   0  0  0  0  0  0  0  0  0  0  0  0
    2.5912  -50.5793  -17.9089 C   0  0  0  0  0  0  0  0  0  0  0  0
    1.6029  -50.5362  -16.9568 O   0  0  0  0  0  0  0  0  0  0  0  0
    3.6217  -51.2327  -17.6589 O   0  0  0  0  0  0  0  0  0  0  0  0
    1.5302  -49.6698  -16.4108 H   0  0  0  0  0  0  0  0  0  0  0  0
    0.7984  -49.5794  -21.0522 C   0  0  0  0  0  0  0  0  0  0  0  0
    1.4967  -50.5380  -20.1329 C   0  0  0  0  0  0  0  0  0  0  0  0
    2.1268  -51.6857  -20.8873 C   0  0  0  0  0  0  0  0  0  0  0  0
    5.4085  -46.4079  -21.3201 C   0  0  0  0  0  0  0  0  0  0  0  0
    4.6963  -46.0332  -22.5168 C   0  0  0  0  0  0  0  0  0  0  0  0
    5.2801  -45.7420  -23.7130 C   0  0  0  0  0  0  0  0  0  0  0  0
    4.5012  -45.3957  -24.8138 C   0  0  0  0  0  0  0  0  0  0  0  0
    3.1291  -45.3260  -24.7692 C   0  0  0  0  0  0  0  0  0  0  0  0
    2.3194  -44.9832  -25.8494 O   0  0  0  0  0  0  0  0  0  0  0  0
    2.5423  -45.6264  -23.5382 C   0  0  0  0  0  0  0  0  0  0  0  0
    3.3143  -45.9633  -22.4707 C   0  0  0  0  0  0  0  0  0  0  0  0
    2.0697  -44.0143  -26.0136 H   0  0  0  0  0  0  0  0  0  0  0  0
    3.6801  -50.4953  -25.2855 C   0  0  0  0  0  0  0  0  0  0  0  0
    2.4058  -51.1185  -25.0260 N   0  0  0  0  0  0  0  0  0  0  0  0
    1.6716  -51.7751  -26.0730 C   0  0  0  0  0  0  0  0  0  0  0  0
    2.2155  -51.7632  -27.2214 O   0  0  0  0  0  0  0  0  0  0  0  0
    1.9492  -51.1352  -24.0852 H   0  0  0  0  0  0  0  0  0  0  0  0
    0.3717  -52.4272  -25.8676 C   0  0  0  0  0  0  0  0  0  0  0  0
   -0.2782  -52.5974  -27.1556 N   0  0  0  0  0  0  0  0  0  0  0  0
   -1.6857  -52.4028  -27.2691 C   0  0  0  0  0  0  0  0  0  0  0  0
   -2.3573  -52.5734  -28.5977 C   0  0  0  0  0  0  0  0  0  0  0  0
   -2.3538  -52.0925  -26.2712 O   0  0  0  0  0  0  0  0  0  0  0  0
    0.3013  -52.8634  -27.9895 H   0  0  0  0  0  0  0  0  0  0  0  0
    0.4697  -53.7500  -25.1429 C   0  0  0  0  0  0  0  0  0  0  0  0
   -0.2658  -53.6908  -23.8295 C   0  0  0  0  0  0  0  0  0  0  0  0
   -0.7624  -54.8336  -23.2535 C   0  0  0  0  0  0  0  0  0  0  0  0
   -1.4241  -54.7420  -22.0531 C   0  0  0  0  0  0  0  0  0  0  0  0
   -1.6256  -53.5409  -21.3741 C   0  0  0  0  0  0  0  0  0  0  0  0
   -1.1077  -52.4220  -21.9960 C   0  0  0  0  0  0  0  0  0  0  0  0
   -0.4420  -52.4892  -23.1963 C   0  0  0  0  0  0  0  0  0  0  0  0
    3.4734  -48.9988  -25.3770 C   0  0  0  0  0  0  0  0  0  0  0  0
    3.3866  -48.5142  -26.7628 C   0  0  0  0  0  0  0  0  0  0  0  0
    3.9788  -49.2562  -27.7636 O   0  0  0  0  0  0  0  0  0  0  0  0
    2.7996  -47.4604  -27.0677 O   0  0  0  0  0  0  0  0  0  0  0  0
    3.5629  -49.5193  -28.6236 H   0  0  0  0  0  0  0  0  0  0  0  0
 22 23  1  0  0  0
 23 24  1  0  0  0
 23 17  1  0  0  0
 17 13  1  0  0  0
 13 14  1  0  0  0
 14 15  2  0  0  0
 14 12  1  0  0  0
 12 25  1  0  0  0
 25 26  1  0  0  0
 26 27  2  0  0  0
 27 28  1  0  0  0
 28 29  2  0  0  0
 29 30  1  0  0  0
 29 31  1  0  0  0
 31 32  2  0  0  0
 12  8  1  0  0  0
  8  9  1  0  0  0
  9 10  2  0  0  0
  9  1  1  0  0  0
  1  2  1  0  0  0
  2  3  1  0  0  0
  3  4  1  0  0  0
  4  5  1  0  0  0
  5  6  1  0  0  0
  6  7  2  0  0  0
  6 34  1  0  0  0
 34 52  1  0  0  0
 52 53  1  0  0  0
 53 54  1  0  0  0
 53 55  2  0  0  0
 34 35  1  0  0  0
 35 36  1  0  0  0
 36 37  2  0  0  0
 36 39  1  0  0  0
 39 45  1  0  0  0
 45 46  1  0  0  0
 46 47  2  0  0  0
 47 48  1  0  0  0
 48 49  2  0  0  0
 49 50  1  0  0  0
 50 51  2  0  0  0
 39 40  1  0  0  0
 40 41  1  0  0  0
 41 42  1  0  0  0
 41 43  2  0  0  0
 17 18  1  0  0  0
 18 19  1  0  0  0
 18 20  2  0  0  0
 32 26  1  0  0  0
  5  1  1  0  0  0
 51 46  1  0  0  0
 13 16  1  0  0  0
 30 33  1  0  0  0
  8 11  1  0  0  0
 54 56  1  0  0  0
 35 38  1  0  0  0
 40 44  1  0  0  0
 19 21  1  0  0  0
M  END
> <minimizedAffinity>
-7.50048

> <CNNscore>
0.0904288292

> <CNNaffinity>
6.4587898254

> <CNN_VS>
0.5840607882

> <CNNaffinity_variance>
0.8488074541

$$$$
[H]OC(=O)C([H])([H])[C@@]([H])(C(=O)N1C([H])([H])C([H])([H])C([H])([H])[C@@]1([H])C(=O)N([H])[C@]([H])(C(=O)N([H])[C@]([H])(C(=O)O[H])C([H])(C([H])([H])[H])C([H])([H])[H])C([H])([H])c1c([H])c([H])c(O[H])c([H])c1[H])N([H])C(=O)[C@@]([H])(N([H])C(=O)C([H])([H])[H])C([H])([H])c1c([H])c([H])c([H])c([H])c1[H]


 56 58  0  0  0  0  0  0  0  0999 V2000
    3.2872  -48.3926  -20.3647 C   0  0  0  0  0  0  0  0  0  0  0  0
    2.1161  -47.5932  -20.9056 C   0  0  0  0  0  0  0  0  0  0  0  0
    1.4415  -48.5361  -21.8680 C   0  0  0  0  0  0  0  0  0  0  0  0
    2.3390  -49.7175  -21.9916 C   0  0  0  0  0  0  0  0  0  0  0  0
    3.6057  -49.2957  -21.4405 N   0  0  0  0  0  0  0  0  0  0  0  0
    4.9282  -49.6346  -21.8304 C   0  0  0  0  0  0  0  0  0  0  0  0
    5.9022  -49.0987  -21.2253 O   0  0  0  0  0  0  0  0  0  0  0  0
    1.5709  -48.9888  -18.6531 N   0  0  0  0  0  0  0  0  0  0  0  0
    2.8663  -49.1860  -19.1689 C   0  0  0  0  0  0  0  0  0  0  0  0
    3.6978  -49.9883  -18.6922 O   0  0  0  0  0  0  0  0  0  0  0  0
    0.9477  -48.2934  -19.1191 H   0  0  0  0  0  0  0  0  0  0  0  0
    1.0090  -49.6840  -17.4985 C   0  0  0  0  0  0  0  0  0  0  0  0
    1.4457  -47.5301  -16.1487 N   0  0  0  0  0  0  0  0  0  0  0  0
    1.4170  -48.9412  -16.3206 C   0  0  0  0  0  0  0  0  0  0  0  0
    1.7984  -49.6010  -15.3156 O   0  0  0  0  0  0  0  0  0  0  0  0
    1.1142  -46.9535  -16.9449 H   0  0  0  0  0  0  0  0  0  0  0  0
    1.8989  -46.8720  -14.9455 C   0  0  0  0  0  0  0  0  0  0  0  0
    0.8826  -46.0864  -14.2532 C   0  0  0  0  0  0  0  0  0  0  0  0
    0.9708  -45.8767  -12.8990 O   0  0  0  0  0  0  0  0  0  0  0  0
   -0.0830  -45.5906  -14.8641 O   0  0  0  0  0  0  0  0  0  0  0  0
    0.7070  -46.6642  -12.2955 H   0  0  0  0  0  0  0  0  0  0  0  0
    4.3921  -46.8505  -14.7352 C   0  0  0  0  0  0  0  0  0  0  0  0
    3.1657  -46.1333  -15.2181 C   0  0  0  0  0  0  0  0  0  0  0  0
    3.3043  -45.6821  -16.6535 C   0  0  0  0  0  0  0  0  0  0  0  0
    1.2417  -51.1223  -17.6141 C   0  0  0  0  0  0  0  0  0  0  0  0
    0.3802  -51.9436  -18.4286 C   0  0  0  0  0  0  0  0  0  0  0  0
   -0.8256  -52.4400  -18.0335 C   0  0  0  0  0  0  0  0  0  0  0  0
   -1.5865  -53.2204  -18.8998 C   0  0  0  0  0  0  0  0  0  0  0  0
   -1.1838  -53.5340  -20.1761 C   0  0  0  0  0  0  0  0  0  0  0  0
   -1.9183  -54.3112  -21.0684 O   0  0  0  0  0  0  0  0  0  0  0  0
    0.0535  -53.0197  -20.5694 C   0  0  0  0  0  0  0  0  0  0  0  0
    0.7870  -52.2588  -19.7139 C   0  0  0  0  0  0  0  0  0  0  0  0
   -1.7896  -55.3165  -21.0964 H   0  0  0  0  0  0  0  0  0  0  0  0
    5.2729  -50.5801  -22.9084 C   0  0  0  0  0  0  0  0  0  0  0  0
    4.5449  -50.3392  -24.1297 N   0  0  0  0  0  0  0  0  0  0  0  0
    3.7846  -51.3832  -24.7610 C   0  0  0  0  0  0  0  0  0  0  0  0
    3.8035  -52.5117  -24.1773 O   0  0  0  0  0  0  0  0  0  0  0  0
    4.5214  -49.4147  -24.6183 H   0  0  0  0  0  0  0  0  0  0  0  0
    3.0235  -51.1961  -26.0032 C   0  0  0  0  0  0  0  0  0  0  0  0
    3.8051  -50.3794  -26.9155 N   0  0  0  0  0  0  0  0  0  0  0  0
    3.6519  -48.9623  -26.9048 C   0  0  0  0  0  0  0  0  0  0  0  0
    4.4605  -48.1178  -27.8419 C   0  0  0  0  0  0  0  0  0  0  0  0
    2.8518  -48.4285  -26.1216 O   0  0  0  0  0  0  0  0  0  0  0  0
    4.4753  -50.8473  -27.5742 H   0  0  0  0  0  0  0  0  0  0  0  0
    2.6211  -52.4946  -26.6639 C   0  0  0  0  0  0  0  0  0  0  0  0
    1.1563  -52.4793  -27.0151 C   0  0  0  0  0  0  0  0  0  0  0  0
    0.7374  -52.7960  -28.2834 C   0  0  0  0  0  0  0  0  0  0  0  0
   -0.6068  -52.7755  -28.5663 C   0  0  0  0  0  0  0  0  0  0  0  0
   -1.5863  -52.4473  -27.6298 C   0  0  0  0  0  0  0  0  0  0  0  0
   -1.1125  -52.1363  -26.3706 C   0  0  0  0  0  0  0  0  0  0  0  0
    0.2270  -52.1504  -26.0642 C   0  0  0  0  0  0  0  0  0  0  0  0
    6.7543  -50.5312  -23.2144 C   0  0  0  0  0  0  0  0  0  0  0  0
    7.0929  -49.5566  -24.2626 C   0  0  0  0  0  0  0  0  0  0  0  0
    6.9812  -48.2113  -23.9789 O   0  0  0  0  0  0  0  0  0  0  0  0
    7.4762  -49.8987  -25.3958 O   0  0  0  0  0  0  0  0  0  0  0  0
    7.6618  -47.5146  -24.1612 H   0  0  0  0  0  0  0  0  0  0  0  0
 22 23  1  0  0  0
 23 24  1  0  0  0
 23 17  1  0  0  0
 17 13  1  0  0  0
 13 14  1  0  0  0
 14 15  2  0  0  0
 14 12  1  0  0  0
 12 25  1  0  0  0
 25 26  1  0  0  0
 26 27  2  0  0  0
 27 28  1  0  0  0
 28 29  2  0  0  0
 29 30  1  0  0  0
 29 31  1  0  0  0
 31 32  2  0  0  0
 12  8  1  0  0  0
  8  9  1  0  0  0
  9 10  2  0  0  0
  9  1  1  0  0  0
  1  2  1  0  0  0
  2  3  1  0  0  0
  3  4  1  0  0  0
  4  5  1  0  0  0
  5  6  1  0  0  0
  6  7  2  0  0  0
  6 34  1  0  0  0
 34 52  1  0  0  0
 52 53  1  0  0  0
 53 54  1  0  0  0
 53 55  2  0  0  0
 34 35  1  0  0  0
 35 36  1  0  0  0
 36 37  2  0  0  0
 36 39  1  0  0  0
 39 45  1  0  0  0
 45 46  1  0  0  0
 46 47  2  0  0  0
 47 48  1  0  0  0
 48 49  2  0  0  0
 49 50  1  0  0  0
 50 51  2  0  0  0
 39 40  1  0  0  0
 40 41  1  0  0  0
 41 42  1  0  0  0
 41 43  2  0  0  0
 17 18  1  0  0  0
 18 19  1  0  0  0
 18 20  2  0  0  0
 32 26  1  0  0  0
  5  1  1  0  0  0
 51 46  1  0  0  0
 13 16  1  0  0  0
 30 33  1  0  0  0
  8 11  1  0  0  0
 54 56  1  0  0  0
 35 38  1  0  0  0
 40 44  1  0  0  0
 19 21  1  0  0  0
M  END
> <minimizedAffinity>
-7.01253

> <CNNscore>
0.0858290493

> <CNNaffinity>
6.6203889847

> <CNN_VS>
0.5682216883

> <CNNaffinity_variance>
0.1844833195

$$$$
[H]OC(=O)c1c([H])c([H])c(N([H])C(=O)c2c([H])c([H])c(-c3c([H])c([H])c(S(=O)(=O)N([H])[H])c([H])c3[H])c([H])c2[H])c([H])c1[H]


 32 34  0  0  0  0  0  0  0  0999 V2000
    1.1807  -53.2448  -25.5045 C   0  0  0  0  0  0  0  0  0  0  0  0
    2.2944  -52.9193  -24.7591 C   0  0  0  0  0  0  0  0  0  0  0  0
    2.9212  -51.6956  -24.9050 C   0  0  0  0  0  0  0  0  0  0  0  0
    2.4618  -50.7426  -25.8035 C   0  0  0  0  0  0  0  0  0  0  0  0
    1.3580  -51.0491  -26.5508 C   0  0  0  0  0  0  0  0  0  0  0  0
    0.7312  -52.2937  -26.3935 C   0  0  0  0  0  0  0  0  0  0  0  0
   -0.7902  -56.9897  -25.1083 C   0  0  0  0  0  0  0  0  0  0  0  0
   -0.2062  -56.6591  -26.3153 C   0  0  0  0  0  0  0  0  0  0  0  0
    0.4233  -55.4359  -26.4040 C   0  0  0  0  0  0  0  0  0  0  0  0
    0.5035  -54.5304  -25.3671 C   0  0  0  0  0  0  0  0  0  0  0  0
   -0.0989  -54.9065  -24.1712 C   0  0  0  0  0  0  0  0  0  0  0  0
   -0.7413  -56.1235  -24.0368 C   0  0  0  0  0  0  0  0  0  0  0  0
   -2.3804  -58.9943  -26.4288 N   0  0  0  0  0  0  0  0  0  0  0  0
   -1.6015  -58.5408  -24.9586 S   0  0  0  0  0  0  0  0  0  0  0  0
   -2.6555  -58.4979  -23.8897 O   0  0  0  0  0  0  0  0  0  0  0  0
   -0.5718  -59.5415  -24.5270 O   0  0  0  0  0  0  0  0  0  0  0  0
   -2.5342  -58.1387  -26.9988 H   0  0  0  0  0  0  0  0  0  0  0  0
   -1.7646  -59.6828  -26.9076 H   0  0  0  0  0  0  0  0  0  0  0  0
    3.1931  -49.4626  -25.8843 C   0  0  0  0  0  0  0  0  0  0  0  0
    2.6053  -48.4275  -26.2701 O   0  0  0  0  0  0  0  0  0  0  0  0
    4.5457  -49.4512  -25.5187 N   0  0  0  0  0  0  0  0  0  0  0  0
    5.0330  -50.3451  -25.1890 H   0  0  0  0  0  0  0  0  0  0  0  0
    5.3473  -48.2859  -25.5459 C   0  0  0  0  0  0  0  0  0  0  0  0
    6.5232  -48.0833  -24.8873 C   0  0  0  0  0  0  0  0  0  0  0  0
    7.2380  -46.8888  -24.9454 C   0  0  0  0  0  0  0  0  0  0  0  0
    6.7719  -45.8306  -25.6945 C   0  0  0  0  0  0  0  0  0  0  0  0
    5.5930  -46.0309  -26.3571 C   0  0  0  0  0  0  0  0  0  0  0  0
    4.8802  -47.2005  -26.3080 C   0  0  0  0  0  0  0  0  0  0  0  0
    7.4834  -44.5654  -25.7848 C   0  0  0  0  0  0  0  0  0  0  0  0
    6.9097  -43.3813  -25.3557 O   0  0  0  0  0  0  0  0  0  0  0  0
    8.6417  -44.5571  -26.2632 O   0  0  0  0  0  0  0  0  0  0  0  0
    6.4769  -43.2306  -24.4706 H   0  0  0  0  0  0  0  0  0  0  0  0
 13 14  1  0  0  0
 14 15  2  0  0  0
 14 16  2  0  0  0
 14  7  1  0  0  0
  7  8  2  0  0  0
  8  9  1  0  0  0
  9 10  2  0  0  0
 10 11  1  0  0  0
 11 12  2  0  0  0
 10  1  1  0  0  0
  1  2  2  0  0  0
  2  3  1  0  0  0
  3  4  2  0  0  0
  4  5  1  0  0  0
  5  6  2  0  0  0
  4 19  1  0  0  0
 19 20  2  0  0  0
 19 21  1  0  0  0
 21 23  1  0  0  0
 23 24  2  0  0  0
 24 25  1  0  0  0
 25 26  2  0  0  0
 26 27  1  0  0  0
 27 28  2  0  0  0
 26 29  1  0  0  0
 29 30  1  0  0  0
 29 31  2  0  0  0
 12  7  1  0  0  0
  6  1  1  0  0  0
 28 23  1  0  0  0
 13 17  1  0  0  0
 13 18  1  0  0  0
 21 22  1  0  0  0
 30 32  1  0  0  0
M  END
> <minimizedAffinity>
4.24051

> <CNNscore>
0.5205448866

> <CNNaffinity>
5.6562452316

> <CNN_VS>
2.9443295002

> <CNNaffinity_variance>
1.0587106943

$$$$
[H]OC(=O)c1c([H])c([H])c(N([H])C(=O)c2c([H])c([H])c(-c3c([H])c([H])c(S(=O)(=O)N([H])[H])c([H])c3[H])c([H])c2[H])c([H])c1[H]


 32 34  0  0  0  0  0  0  0  0999 V2000
    3.5830  -49.4408  -25.2832 C   0  0  0  0  0  0  0  0  0  0  0  0
    2.3253  -49.6397  -25.8130 C   0  0  0  0  0  0  0  0  0  0  0  0
    1.6004  -50.7819  -25.5274 C   0  0  0  0  0  0  0  0  0  0  0  0
    2.1014  -51.7764  -24.6988 C   0  0  0  0  0  0  0  0  0  0  0  0
    3.3475  -51.5949  -24.1647 C   0  0  0  0  0  0  0  0  0  0  0  0
    4.0727  -50.4321  -24.4621 C   0  0  0  0  0  0  0  0  0  0  0  0
    5.8592  -45.9509  -26.1233 C   0  0  0  0  0  0  0  0  0  0  0  0
    4.4898  -45.9218  -26.2998 C   0  0  0  0  0  0  0  0  0  0  0  0
    3.7870  -47.0735  -26.0168 C   0  0  0  0  0  0  0  0  0  0  0  0
    4.3659  -48.2431  -25.5714 C   0  0  0  0  0  0  0  0  0  0  0  0
    5.7470  -48.2252  -25.4085 C   0  0  0  0  0  0  0  0  0  0  0  0
    6.4923  -47.0927  -25.6802 C   0  0  0  0  0  0  0  0  0  0  0  0
    7.9578  -44.1844  -25.2480 N   0  0  0  0  0  0  0  0  0  0  0  0
    6.7876  -44.5014  -26.4744 S   0  0  0  0  0  0  0  0  0  0  0  0
    5.8953  -43.2966  -26.5621 O   0  0  0  0  0  0  0  0  0  0  0  0
    7.4132  -44.6899  -27.8239 O   0  0  0  0  0  0  0  0  0  0  0  0
    7.6678  -44.6767  -24.3795 H   0  0  0  0  0  0  0  0  0  0  0  0
    8.8778  -44.5169  -25.6024 H   0  0  0  0  0  0  0  0  0  0  0  0
    1.2512  -52.9568  -24.4471 C   0  0  0  0  0  0  0  0  0  0  0  0
    0.6902  -53.1009  -23.3380 O   0  0  0  0  0  0  0  0  0  0  0  0
    1.0988  -53.8924  -25.4790 N   0  0  0  0  0  0  0  0  0  0  0  0
    1.5842  -53.7531  -26.4226 H   0  0  0  0  0  0  0  0  0  0  0  0
    0.3040  -55.0565  -25.3602 C   0  0  0  0  0  0  0  0  0  0  0  0
   -0.4316  -55.4411  -24.2792 C   0  0  0  0  0  0  0  0  0  0  0  0
   -1.1666  -56.6239  -24.2341 C   0  0  0  0  0  0  0  0  0  0  0  0
   -1.1816  -57.4796  -25.3137 C   0  0  0  0  0  0  0  0  0  0  0  0
   -0.4454  -57.0963  -26.4001 C   0  0  0  0  0  0  0  0  0  0  0  0
    0.2820  -55.9361  -26.4571 C   0  0  0  0  0  0  0  0  0  0  0  0
   -1.9337  -58.7243  -25.3122 C   0  0  0  0  0  0  0  0  0  0  0  0
   -2.7598  -59.0709  -26.3672 O   0  0  0  0  0  0  0  0  0  0  0  0
   -1.8248  -59.4942  -24.3294 O   0  0  0  0  0  0  0  0  0  0  0  0
   -2.5069  -59.0664  -27.3312 H   0  0  0  0  0  0  0  0  0  0  0  0
 13 14  1  0  0  0
 14 15  2  0  0  0
 14 16  2  0  0  0
 14  7  1  0  0  0
  7  8  2  0  0  0
  8  9  1  0  0  0
  9 10  2  0  0  0
 10 11  1  0  0  0
 11 12  2  0  0  0
 10  1  1  0  0  0
  1  2  2  0  0  0
  2  3  1  0  0  0
  3  4  2  0  0  0
  4  5  1  0  0  0
  5  6  2  0  0  0
  4 19  1  0  0  0
 19 20  2  0  0  0
 19 21  1  0  0  0
 21 23  1  0  0  0
 23 24  2  0  0  0
 24 25  1  0  0  0
 25 26  2  0  0  0
 26 27  1  0  0  0
 27 28  2  0  0  0
 26 29  1  0  0  0
 29 30  1  0  0  0
 29 31  2  0  0  0
 12  7  1  0  0  0
  6  1  1  0  0  0
 28 23  1  0  0  0
 13 17  1  0  0  0
 13 18  1  0  0  0
 21 22  1  0  0  0
 30 32  1  0  0  0
M  END
> <minimizedAffinity>
-0.15448

> <CNNscore>
0.4427075684

> <CNNaffinity>
5.3316435814

> <CNN_VS>
2.3603589535

> <CNNaffinity_variance>
0.8102585673

$$$$
[H]OC(=O)c1c([H])c([H])c(N([H])C(=O)c2c([H])c([H])c(-c3c([H])c([H])c(S(=O)(=O)N([H])[H])c([H])c3[H])c([H])c2[H])c([H])c1[H]


 32 34  0  0  0  0  0  0  0  0999 V2000
    4.7570  -47.9840  -27.3879 C   0  0  0  0  0  0  0  0  0  0  0  0
    5.3796  -48.6398  -26.3467 C   0  0  0  0  0  0  0  0  0  0  0  0
    4.6475  -49.2610  -25.3518 C   0  0  0  0  0  0  0  0  0  0  0  0
    3.2595  -49.2539  -25.3542 C   0  0  0  0  0  0  0  0  0  0  0  0
    2.6259  -48.6079  -26.3800 C   0  0  0  0  0  0  0  0  0  0  0  0
    3.3799  -47.9816  -27.3830 C   0  0  0  0  0  0  0  0  0  0  0  0
    6.9464  -46.0557  -30.4789 C   0  0  0  0  0  0  0  0  0  0  0  0
    5.8649  -46.8476  -30.8114 C   0  0  0  0  0  0  0  0  0  0  0  0
    5.1808  -47.4559  -29.7807 C   0  0  0  0  0  0  0  0  0  0  0  0
    5.5099  -47.3213  -28.4484 C   0  0  0  0  0  0  0  0  0  0  0  0
    6.6059  -46.5144  -28.1618 C   0  0  0  0  0  0  0  0  0  0  0  0
    7.3216  -45.8848  -29.1633 C   0  0  0  0  0  0  0  0  0  0  0  0
    8.7434  -43.9173  -31.1782 N   0  0  0  0  0  0  0  0  0  0  0  0
    7.8424  -45.2648  -31.7666 S   0  0  0  0  0  0  0  0  0  0  0  0
    6.9169  -44.7520  -32.8324 O   0  0  0  0  0  0  0  0  0  0  0  0
    8.7187  -46.3028  -32.4013 O   0  0  0  0  0  0  0  0  0  0  0  0
    8.3239  -43.6066  -30.2793 H   0  0  0  0  0  0  0  0  0  0  0  0
    9.7304  -44.2273  -31.0676 H   0  0  0  0  0  0  0  0  0  0  0  0
    2.5649  -49.9498  -24.2529 C   0  0  0  0  0  0  0  0  0  0  0  0
    1.7771  -50.8895  -24.5024 O   0  0  0  0  0  0  0  0  0  0  0  0
    2.8171  -49.5259  -22.9413 N   0  0  0  0  0  0  0  0  0  0  0  0
    3.4953  -48.7217  -22.7451 H   0  0  0  0  0  0  0  0  0  0  0  0
    2.2192  -50.1197  -21.8052 C   0  0  0  0  0  0  0  0  0  0  0  0
    2.4156  -51.3865  -21.3421 C   0  0  0  0  0  0  0  0  0  0  0  0
    1.7611  -51.9047  -20.2267 C   0  0  0  0  0  0  0  0  0  0  0  0
    0.8611  -51.1343  -19.5234 C   0  0  0  0  0  0  0  0  0  0  0  0
    0.6624  -49.8628  -19.9847 C   0  0  0  0  0  0  0  0  0  0  0  0
    1.2993  -49.3413  -21.0805 C   0  0  0  0  0  0  0  0  0  0  0  0
    0.1545  -51.6323  -18.3538 C   0  0  0  0  0  0  0  0  0  0  0  0
   -0.0895  -50.8231  -17.2579 O   0  0  0  0  0  0  0  0  0  0  0  0
   -0.2385  -52.8223  -18.3473 O   0  0  0  0  0  0  0  0  0  0  0  0
   -0.4953  -49.9131  -17.2843 H   0  0  0  0  0  0  0  0  0  0  0  0
 13 14  1  0  0  0
 14 15  2  0  0  0
 14 16  2  0  0  0
 14  7  1  0  0  0
  7  8  2  0  0  0
  8  9  1  0  0  0
  9 10  2  0  0  0
 10 11  1  0  0  0
 11 12  2  0  0  0
 10  1  1  0  0  0
  1  2  2  0  0  0
  2  3  1  0  0  0
  3  4  2  0  0  0
  4  5  1  0  0  0
  5  6  2  0  0  0
  4 19  1  0  0  0
 19 20  2  0  0  0
 19 21  1  0  0  0
 21 23  1  0  0  0
 23 24  2  0  0  0
 24 25  1  0  0  0
 25 26  2  0  0  0
 26 27  1  0  0  0
 27 28  2  0  0  0
 26 29  1  0  0  0
 29 30  1  0  0  0
 29 31  2  0  0  0
 12  7  1  0  0  0
  6  1  1  0  0  0
 28 23  1  0  0  0
 13 17  1  0  0  0
 13 18  1  0  0  0
 21 22  1  0  0  0
 30 32  1  0  0  0
M  END
> <minimizedAffinity>
-4.31432

> <CNNscore>
0.4170959294

> <CNNaffinity>
4.9947304726

> <CNN_VS>
2.0832817554

> <CNNaffinity_variance>
0.5618152022

$$$$
[H]OC(=O)c1c([H])c([H])c(N([H])C(=O)c2c([H])c([H])c(-c3c([H])c([H])c(S(=O)(=O)N([H])[H])c([H])c3[H])c([H])c2[H])c([H])c1[H]


 32 34  0  0  0  0  0  0  0  0999 V2000
    2.0026  -49.3344  -21.5839 C   0  0  0  0  0  0  0  0  0  0  0  0
    2.1617  -47.9831  -21.8091 C   0  0  0  0  0  0  0  0  0  0  0  0
    2.7105  -47.5134  -22.9880 C   0  0  0  0  0  0  0  0  0  0  0  0
    3.1247  -48.3746  -23.9946 C   0  0  0  0  0  0  0  0  0  0  0  0
    2.9739  -49.7183  -23.7876 C   0  0  0  0  0  0  0  0  0  0  0  0
    2.4159  -50.1821  -22.5875 C   0  0  0  0  0  0  0  0  0  0  0  0
    0.3225  -50.8463  -17.9843 C   0  0  0  0  0  0  0  0  0  0  0  0
    0.1544  -51.5557  -19.1573 C   0  0  0  0  0  0  0  0  0  0  0  0
    0.7141  -51.0325  -20.3033 C   0  0  0  0  0  0  0  0  0  0  0  0
    1.4261  -49.8523  -20.3471 C   0  0  0  0  0  0  0  0  0  0  0  0
    1.5694  -49.1728  -19.1420 C   0  0  0  0  0  0  0  0  0  0  0  0
    1.0250  -49.6601  -17.9682 C   0  0  0  0  0  0  0  0  0  0  0  0
   -1.0599  -53.0479  -16.7462 N   0  0  0  0  0  0  0  0  0  0  0  0
   -0.3773  -51.4829  -16.5040 S   0  0  0  0  0  0  0  0  0  0  0  0
   -1.4744  -50.5907  -15.9981 O   0  0  0  0  0  0  0  0  0  0  0  0
    0.7051  -51.4876  -15.4664 O   0  0  0  0  0  0  0  0  0  0  0  0
   -1.2531  -53.1707  -17.7601 H   0  0  0  0  0  0  0  0  0  0  0  0
   -0.3758  -53.7447  -16.3869 H   0  0  0  0  0  0  0  0  0  0  0  0
    3.6928  -47.7794  -25.2204 C   0  0  0  0  0  0  0  0  0  0  0  0
    4.7209  -48.2702  -25.7378 O   0  0  0  0  0  0  0  0  0  0  0  0
    3.0480  -46.6646  -25.7726 N   0  0  0  0  0  0  0  0  0  0  0  0
    2.1683  -46.2583  -25.3185 H   0  0  0  0  0  0  0  0  0  0  0  0
    3.4921  -46.0142  -26.9477 C   0  0  0  0  0  0  0  0  0  0  0  0
    4.4181  -45.0180  -27.0343 C   0  0  0  0  0  0  0  0  0  0  0  0
    4.7783  -44.4088  -28.2344 C   0  0  0  0  0  0  0  0  0  0  0  0
    4.1961  -44.8006  -29.4200 C   0  0  0  0  0  0  0  0  0  0  0  0
    3.2674  -45.8005  -29.3368 C   0  0  0  0  0  0  0  0  0  0  0  0
    2.9040  -46.4075  -28.1630 C   0  0  0  0  0  0  0  0  0  0  0  0
    4.5402  -44.1940  -30.6961 C   0  0  0  0  0  0  0  0  0  0  0  0
    5.6632  -44.5863  -31.4035 O   0  0  0  0  0  0  0  0  0  0  0  0
    3.7972  -43.2966  -31.1578 O   0  0  0  0  0  0  0  0  0  0  0  0
    5.9119  -45.5250  -31.6281 H   0  0  0  0  0  0  0  0  0  0  0  0
 13 14  1  0  0  0
 14 15  2  0  0  0
 14 16  2  0  0  0
 14  7  1  0  0  0
  7  8  2  0  0  0
  8  9  1  0  0  0
  9 10  2  0  0  0
 10 11  1  0  0  0
 11 12  2  0  0  0
 10  1  1  0  0  0
  1  2  2  0  0  0
  2  3  1  0  0  0
  3  4  2  0  0  0
  4  5  1  0  0  0
  5  6  2  0  0  0
  4 19  1  0  0  0
 19 20  2  0  0  0
 19 21  1  0  0  0
 21 23  1  0  0  0
 23 24  2  0  0  0
 24 25  1  0  0  0
 25 26  2  0  0  0
 26 27  1  0  0  0
 27 28  2  0  0  0
 26 29  1  0  0  0
 29 30  1  0  0  0
 29 31  2  0  0  0
 12  7  1  0  0  0
  6  1  1  0  0  0
 28 23  1  0  0  0
 13 17  1  0  0  0
 13 18  1  0  0  0
 21 22  1  0  0  0
 30 32  1  0  0  0
M  END
> <minimizedAffinity>
-6.12046

> <CNNscore>
0.3535466492

> <CNNaffinity>
5.1276617050

> <CNN_VS>
1.8128676414

> <CNNaffinity_variance>
0.3188127875

$$$$
[H]OC(=O)c1c([H])c([H])c(N([H])C(=O)c2c([H])c([H])c(-c3c([H])c([H])c(S(=O)(=O)N([H])[H])c([H])c3[H])c([H])c2[H])c([H])c1[H]


 32 34  0  0  0  0  0  0  0  0999 V2000
    1.2876  -49.7932  -19.4825 C   0  0  0  0  0  0  0  0  0  0  0  0
    2.4493  -49.0504  -19.4607 C   0  0  0  0  0  0  0  0  0  0  0  0
    3.1005  -48.7049  -20.6304 C   0  0  0  0  0  0  0  0  0  0  0  0
    2.6184  -49.0872  -21.8745 C   0  0  0  0  0  0  0  0  0  0  0  0
    1.4669  -49.8243  -21.9144 C   0  0  0  0  0  0  0  0  0  0  0  0
    0.8159  -50.1683  -20.7208 C   0  0  0  0  0  0  0  0  0  0  0  0
   -0.7608  -50.8847  -15.9218 C   0  0  0  0  0  0  0  0  0  0  0  0
   -0.1591  -49.6441  -16.0006 C   0  0  0  0  0  0  0  0  0  0  0  0
    0.4954  -49.3274  -17.1718 C   0  0  0  0  0  0  0  0  0  0  0  0
    0.5839  -50.1694  -18.2603 C   0  0  0  0  0  0  0  0  0  0  0  0
   -0.0370  -51.4076  -18.1350 C   0  0  0  0  0  0  0  0  0  0  0  0
   -0.7046  -51.7678  -16.9790 C   0  0  0  0  0  0  0  0  0  0  0  0
   -0.7303  -52.5040  -13.5411 N   0  0  0  0  0  0  0  0  0  0  0  0
   -1.6039  -51.3228  -14.4441 S   0  0  0  0  0  0  0  0  0  0  0  0
   -2.9565  -51.9016  -14.7454 O   0  0  0  0  0  0  0  0  0  0  0  0
   -1.8244  -50.0597  -13.6667 O   0  0  0  0  0  0  0  0  0  0  0  0
   -0.0748  -52.9924  -14.1832 H   0  0  0  0  0  0  0  0  0  0  0  0
   -0.2345  -52.0054  -12.7742 H   0  0  0  0  0  0  0  0  0  0  0  0
    3.3790  -48.6655  -23.0676 C   0  0  0  0  0  0  0  0  0  0  0  0
    4.3199  -49.3718  -23.4938 O   0  0  0  0  0  0  0  0  0  0  0  0
    3.0133  -47.4663  -23.6934 N   0  0  0  0  0  0  0  0  0  0  0  0
    2.2047  -46.8748  -23.3170 H   0  0  0  0  0  0  0  0  0  0  0  0
    3.6604  -46.9638  -24.8466 C   0  0  0  0  0  0  0  0  0  0  0  0
    4.7646  -46.1658  -24.8860 C   0  0  0  0  0  0  0  0  0  0  0  0
    5.3236  -45.6890  -26.0697 C   0  0  0  0  0  0  0  0  0  0  0  0
    4.7668  -46.0148  -27.2871 C   0  0  0  0  0  0  0  0  0  0  0  0
    3.6595  -46.8159  -27.2512 C   0  0  0  0  0  0  0  0  0  0  0  0
    3.0998  -47.2912  -26.0939 C   0  0  0  0  0  0  0  0  0  0  0  0
    5.3152  -45.5406  -28.5478 C   0  0  0  0  0  0  0  0  0  0  0  0
    4.5501  -45.5035  -29.7004 O   0  0  0  0  0  0  0  0  0  0  0  0
    6.5084  -45.1589  -28.5815 O   0  0  0  0  0  0  0  0  0  0  0  0
    3.6438  -45.0975  -29.7855 H   0  0  0  0  0  0  0  0  0  0  0  0
 13 14  1  0  0  0
 14 15  2  0  0  0
 14 16  2  0  0  0
 14  7  1  0  0  0
  7  8  2  0  0  0
  8  9  1  0  0  0
  9 10  2  0  0  0
 10 11  1  0  0  0
 11 12  2  0  0  0
 10  1  1  0  0  0
  1  2  2  0  0  0
  2  3  1  0  0  0
  3  4  2  0  0  0
  4  5  1  0  0  0
  5  6  2  0  0  0
  4 19  1  0  0  0
 19 20  2  0  0  0
 19 21  1  0  0  0
 21 23  1  0  0  0
 23 24  2  0  0  0
 24 25  1  0  0  0
 25 26  2  0  0  0
 26 27  1  0  0  0
 27 28  2  0  0  0
 26 29  1  0  0  0
 29 30  1  0  0  0
 29 31  2  0  0  0
 12  7  1  0  0  0
  6  1  1  0  0  0
 28 23  1  0  0  0
 13 17  1  0  0  0
 13 18  1  0  0  0
 21 22  1  0  0  0
 30 32  1  0  0  0
M  END
> <minimizedAffinity>
-5.38720

> <CNNscore>
0.3322035074

> <CNNaffinity>
4.9484057426

> <CNN_VS>
1.6438777447

> <CNNaffinity_variance>
0.2564090490

$$$$
[H]OC(=O)c1c([H])c([H])c(N([H])C(=O)c2c([H])c([H])c(-c3c([H])c([H])c(S(=O)(=O)N([H])[H])c([H])c3[H])c([H])c2[H])c([H])c1[H]


 32 34  0  0  0  0  0  0  0  0999 V2000
    1.4529  -50.4917  -23.5639 C   0  0  0  0  0  0  0  0  0  0  0  0
    2.1577  -49.3071  -23.5198 C   0  0  0  0  0  0  0  0  0  0  0  0
    2.4528  -48.6938  -22.3163 C   0  0  0  0  0  0  0  0  0  0  0  0
    2.0560  -49.2384  -21.1028 C   0  0  0  0  0  0  0  0  0  0  0  0
    1.3561  -50.4133  -21.1284 C   0  0  0  0  0  0  0  0  0  0  0  0
    1.0631  -51.0254  -22.3557 C   0  0  0  0  0  0  0  0  0  0  0  0
    0.5089  -52.4272  -27.2283 C   0  0  0  0  0  0  0  0  0  0  0  0
   -0.4610  -52.3240  -26.2506 C   0  0  0  0  0  0  0  0  0  0  0  0
   -0.1160  -51.6895  -25.0764 C   0  0  0  0  0  0  0  0  0  0  0  0
    1.1302  -51.1562  -24.8227 C   0  0  0  0  0  0  0  0  0  0  0  0
    2.0742  -51.2840  -25.8361 C   0  0  0  0  0  0  0  0  0  0  0  0
    1.7724  -51.9126  -27.0301 C   0  0  0  0  0  0  0  0  0  0  0  0
   -1.3580  -54.1332  -28.6051 N   0  0  0  0  0  0  0  0  0  0  0  0
    0.1049  -53.2298  -28.7380 S   0  0  0  0  0  0  0  0  0  0  0  0
    1.1863  -54.1887  -29.1460 O   0  0  0  0  0  0  0  0  0  0  0  0
    0.0269  -52.1716  -29.7973 O   0  0  0  0  0  0  0  0  0  0  0  0
   -1.5339  -54.3311  -27.5999 H   0  0  0  0  0  0  0  0  0  0  0  0
   -2.1156  -53.5635  -29.0343 H   0  0  0  0  0  0  0  0  0  0  0  0
    2.4231  -48.5144  -19.8696 C   0  0  0  0  0  0  0  0  0  0  0  0
    2.6527  -47.2850  -19.9086 O   0  0  0  0  0  0  0  0  0  0  0  0
    2.5025  -49.2431  -18.6754 N   0  0  0  0  0  0  0  0  0  0  0  0
    2.3012  -50.2941  -18.6591 H   0  0  0  0  0  0  0  0  0  0  0  0
    2.8355  -48.6595  -17.4306 C   0  0  0  0  0  0  0  0  0  0  0  0
    2.0728  -48.6444  -16.3012 C   0  0  0  0  0  0  0  0  0  0  0  0
    2.4654  -48.0187  -15.1198 C   0  0  0  0  0  0  0  0  0  0  0  0
    3.6783  -47.3699  -15.0417 C   0  0  0  0  0  0  0  0  0  0  0  0
    4.4462  -47.3839  -16.1727 C   0  0  0  0  0  0  0  0  0  0  0  0
    4.0716  -47.9953  -17.3408 C   0  0  0  0  0  0  0  0  0  0  0  0
    4.1298  -46.7032  -13.8306 C   0  0  0  0  0  0  0  0  0  0  0  0
    4.6872  -45.4370  -13.8676 O   0  0  0  0  0  0  0  0  0  0  0  0
    4.0071  -47.2964  -12.7335 O   0  0  0  0  0  0  0  0  0  0  0  0
    4.2962  -44.6412  -14.3227 H   0  0  0  0  0  0  0  0  0  0  0  0
 13 14  1  0  0  0
 14 15  2  0  0  0
 14 16  2  0  0  0
 14  7  1  0  0  0
  7  8  2  0  0  0
  8  9  1  0  0  0
  9 10  2  0  0  0
 10 11  1  0  0  0
 11 12  2  0  0  0
 10  1  1  0  0  0
  1  2  2  0  0  0
  2  3  1  0  0  0
  3  4  2  0  0  0
  4  5  1  0  0  0
  5  6  2  0  0  0
  4 19  1  0  0  0
 19 20  2  0  0  0
 19 21  1  0  0  0
 21 23  1  0  0  0
 23 24  2  0  0  0
 24 25  1  0  0  0
 25 26  2  0  0  0
 26 27  1  0  0  0
 27 28  2  0  0  0
 26 29  1  0  0  0
 29 30  1  0  0  0
 29 31  2  0  0  0
 12  7  1  0  0  0
  6  1  1  0  0  0
 28 23  1  0  0  0
 13 17  1  0  0  0
 13 18  1  0  0  0
 21 22  1  0  0  0
 30 32  1  0  0  0
M  END
> <minimizedAffinity>
-4.38391

> <CNNscore>
0.3077548742

> <CNNaffinity>
5.1960496902

> <CNN_VS>
1.5991096497

> <CNNaffinity_variance>
0.4665978849

$$$$
[H]OC(=O)c1c([H])c([H])c(N([H])C(=O)c2c([H])c([H])c(-c3c([H])c([H])c(S(=O)(=O)N([H])[H])c([H])c3[H])c([H])c2[H])c([H])c1[H]


 32 34  0  0  0  0  0  0  0  0999 V2000
    0.4811  -51.4919  -19.1385 C   0  0  0  0  0  0  0  0  0  0  0  0
    0.8952  -50.7863  -20.2487 C   0  0  0  0  0  0  0  0  0  0  0  0
    0.6323  -51.2433  -21.5268 C   0  0  0  0  0  0  0  0  0  0  0  0
   -0.0569  -52.4270  -21.7515 C   0  0  0  0  0  0  0  0  0  0  0  0
   -0.4751  -53.1393  -20.6613 C   0  0  0  0  0  0  0  0  0  0  0  0
   -0.2021  -52.6651  -19.3700 C   0  0  0  0  0  0  0  0  0  0  0  0
    1.2623  -50.1418  -15.1847 C   0  0  0  0  0  0  0  0  0  0  0  0
    2.3171  -50.3149  -16.0591 C   0  0  0  0  0  0  0  0  0  0  0  0
    2.0228  -50.7541  -17.3323 C   0  0  0  0  0  0  0  0  0  0  0  0
    0.7479  -51.0284  -17.7804 C   0  0  0  0  0  0  0  0  0  0  0  0
   -0.2821  -50.8396  -16.8651 C   0  0  0  0  0  0  0  0  0  0  0  0
   -0.0337  -50.4005  -15.5777 C   0  0  0  0  0  0  0  0  0  0  0  0
    2.6936  -50.6361  -12.7356 N   0  0  0  0  0  0  0  0  0  0  0  0
    1.5996  -49.5833  -13.5535 S   0  0  0  0  0  0  0  0  0  0  0  0
    0.3431  -49.5205  -12.7335 O   0  0  0  0  0  0  0  0  0  0  0  0
    2.1290  -48.1848  -13.6628 O   0  0  0  0  0  0  0  0  0  0  0  0
    2.6694  -51.5647  -13.2021 H   0  0  0  0  0  0  0  0  0  0  0  0
    3.6363  -50.1978  -12.7762 H   0  0  0  0  0  0  0  0  0  0  0  0
   -0.2958  -52.8303  -23.1515 C   0  0  0  0  0  0  0  0  0  0  0  0
   -0.5269  -54.0284  -23.4285 O   0  0  0  0  0  0  0  0  0  0  0  0
   -0.2550  -51.8381  -24.1401 N   0  0  0  0  0  0  0  0  0  0  0  0
   -0.0578  -50.8174  -23.8859 H   0  0  0  0  0  0  0  0  0  0  0  0
   -0.4764  -52.1003  -25.5125 C   0  0  0  0  0  0  0  0  0  0  0  0
   -1.6703  -52.0806  -26.1695 C   0  0  0  0  0  0  0  0  0  0  0  0
   -1.8050  -52.3813  -27.5232 C   0  0  0  0  0  0  0  0  0  0  0  0
   -0.7030  -52.7207  -28.2773 C   0  0  0  0  0  0  0  0  0  0  0  0
    0.4964  -52.7405  -27.6214 C   0  0  0  0  0  0  0  0  0  0  0  0
    0.6423  -52.4473  -26.2905 C   0  0  0  0  0  0  0  0  0  0  0  0
   -0.7952  -53.0423  -29.6926 C   0  0  0  0  0  0  0  0  0  0  0  0
    0.2222  -52.7215  -30.5744 O   0  0  0  0  0  0  0  0  0  0  0  0
   -1.8225  -53.6232  -30.1140 O   0  0  0  0  0  0  0  0  0  0  0  0
    1.1886  -52.9311  -30.4503 H   0  0  0  0  0  0  0  0  0  0  0  0
 13 14  1  0  0  0
 14 15  2  0  0  0
 14 16  2  0  0  0
 14  7  1  0  0  0
  7  8  2  0  0  0
  8  9  1  0  0  0
  9 10  2  0  0  0
 10 11  1  0  0  0
 11 12  2  0  0  0
 10  1  1  0  0  0
  1  2  2  0  0  0
  2  3  1  0  0  0
  3  4  2  0  0  0
  4  5  1  0  0  0
  5  6  2  0  0  0
  4 19  1  0  0  0
 19 20  2  0  0  0
 19 21  1  0  0  0
 21 23  1  0  0  0
 23 24  2  0  0  0
 24 25  1  0  0  0
 25 26  2  0  0  0
 26 27  1  0  0  0
 27 28  2  0  0  0
 26 29  1  0  0  0
 29 30  1  0  0  0
 29 31  2  0  0  0
 12  7  1  0  0  0
  6  1  1  0  0  0
 28 23  1  0  0  0
 13 17  1  0  0  0
 13 18  1  0  0  0
 21 22  1  0  0  0
 30 32  1  0  0  0
M  END
> <minimizedAffinity>
-7.54581

> <CNNscore>
0.3076818585

> <CNNaffinity>
5.4319272041

> <CNN_VS>
1.6713054180

> <CNNaffinity_variance>
0.1059707403

$$$$
[H]OC(=O)c1c([H])c([H])c(N([H])C(=O)c2c([H])c([H])c(-c3c([H])c([H])c(S(=O)(=O)N([H])[H])c([H])c3[H])c([H])c2[H])c([H])c1[H]


 32 34  0  0  0  0  0  0  0  0999 V2000
    2.6138  -49.7878  -23.2865 C   0  0  0  0  0  0  0  0  0  0  0  0
    3.2978  -48.6041  -23.4677 C   0  0  0  0  0  0  0  0  0  0  0  0
    3.6051  -47.7837  -22.3982 C   0  0  0  0  0  0  0  0  0  0  0  0
    3.2419  -48.1108  -21.0991 C   0  0  0  0  0  0  0  0  0  0  0  0
    2.5630  -49.2817  -20.9015 C   0  0  0  0  0  0  0  0  0  0  0  0
    2.2571  -50.1051  -21.9946 C   0  0  0  0  0  0  0  0  0  0  0  0
    1.6342  -52.3548  -26.5294 C   0  0  0  0  0  0  0  0  0  0  0  0
    0.8536  -52.3790  -25.3904 C   0  0  0  0  0  0  0  0  0  0  0  0
    1.2038  -51.5318  -24.3608 C   0  0  0  0  0  0  0  0  0  0  0  0
    2.2786  -50.6689  -24.4008 C   0  0  0  0  0  0  0  0  0  0  0  0
    3.0354  -50.6794  -25.5677 C   0  0  0  0  0  0  0  0  0  0  0  0
    2.7212  -51.5123  -26.6256 C   0  0  0  0  0  0  0  0  0  0  0  0
    0.2675  -54.7589  -27.3317 N   0  0  0  0  0  0  0  0  0  0  0  0
    1.2178  -53.4211  -27.8621 S   0  0  0  0  0  0  0  0  0  0  0  0
    2.4509  -53.9794  -28.5125 O   0  0  0  0  0  0  0  0  0  0  0  0
    0.5098  -52.5916  -28.8910 O   0  0  0  0  0  0  0  0  0  0  0  0
    0.4160  -54.8854  -26.3107 H   0  0  0  0  0  0  0  0  0  0  0  0
   -0.7244  -54.5474  -27.5637 H   0  0  0  0  0  0  0  0  0  0  0  0
    3.6198  -47.1751  -20.0214 C   0  0  0  0  0  0  0  0  0  0  0  0
    4.2133  -46.1084  -20.2963 O   0  0  0  0  0  0  0  0  0  0  0  0
    3.2939  -47.5206  -18.7032 N   0  0  0  0  0  0  0  0  0  0  0  0
    2.7844  -48.4362  -18.4855 H   0  0  0  0  0  0  0  0  0  0  0  0
    3.5955  -46.7027  -17.5892 C   0  0  0  0  0  0  0  0  0  0  0  0
    3.0905  -45.4661  -17.3184 C   0  0  0  0  0  0  0  0  0  0  0  0
    3.4648  -44.7117  -16.2084 C   0  0  0  0  0  0  0  0  0  0  0  0
    4.3888  -45.1997  -15.3105 C   0  0  0  0  0  0  0  0  0  0  0  0
    4.8968  -46.4404  -15.5788 C   0  0  0  0  0  0  0  0  0  0  0  0
    4.5373  -47.1922  -16.6668 C   0  0  0  0  0  0  0  0  0  0  0  0
    4.8098  -44.4486  -14.1385 C   0  0  0  0  0  0  0  0  0  0  0  0
    4.7012  -44.9770  -12.8640 O   0  0  0  0  0  0  0  0  0  0  0  0
    5.2805  -43.2979  -14.2960 O   0  0  0  0  0  0  0  0  0  0  0  0
    5.0274  -45.8734  -12.5750 H   0  0  0  0  0  0  0  0  0  0  0  0
 13 14  1  0  0  0
 14 15  2  0  0  0
 14 16  2  0  0  0
 14  7  1  0  0  0
  7  8  2  0  0  0
  8  9  1  0  0  0
  9 10  2  0  0  0
 10 11  1  0  0  0
 11 12  2  0  0  0
 10  1  1  0  0  0
  1  2  2  0  0  0
  2  3  1  0  0  0
  3  4  2  0  0  0
  4  5  1  0  0  0
  5  6  2  0  0  0
  4 19  1  0  0  0
 19 20  2  0  0  0
 19 21  1  0  0  0
 21 23  1  0  0  0
 23 24  2  0  0  0
 24 25  1  0  0  0
 25 26  2  0  0  0
 26 27  1  0  0  0
 27 28  2  0  0  0
 26 29  1  0  0  0
 29 30  1  0  0  0
 29 31  2  0  0  0
 12  7  1  0  0  0
  6  1  1  0  0  0
 28 23  1  0  0  0
 13 17  1  0  0  0
 13 18  1  0  0  0
 21 22  1  0  0  0
 30 32  1  0  0  0
M  END
> <minimizedAffinity>
-5.46802

> <CNNscore>
0.2733405530

> <CNNaffinity>
5.1822843552

> <CNN_VS>
1.4165284634

> <CNNaffinity_variance>
0.4034270644

$$$$
[H]OC(=O)c1c([H])c([H])c(N([H])C(=O)c2c([H])c([H])c(-c3c([H])c([H])c(S(=O)(=O)N([H])[H])c([H])c3[H])c([H])c2[H])c([H])c1[H]


 32 34  0  0  0  0  0  0  0  0999 V2000
    4.0372  -48.8540  -26.1885 C   0  0  0  0  0  0  0  0  0  0  0  0
    2.6848  -48.6729  -25.9886 C   0  0  0  0  0  0  0  0  0  0  0  0
    2.0496  -49.1916  -24.8754 C   0  0  0  0  0  0  0  0  0  0  0  0
    2.7393  -49.9147  -23.9121 C   0  0  0  0  0  0  0  0  0  0  0  0
    4.0817  -50.1036  -24.0948 C   0  0  0  0  0  0  0  0  0  0  0  0
    4.7142  -49.5725  -25.2282 C   0  0  0  0  0  0  0  0  0  0  0  0
    6.0480  -47.2827  -29.5875 C   0  0  0  0  0  0  0  0  0  0  0  0
    5.4415  -46.4143  -28.7014 C   0  0  0  0  0  0  0  0  0  0  0  0
    4.7996  -46.9626  -27.6116 C   0  0  0  0  0  0  0  0  0  0  0  0
    4.7280  -48.3158  -27.3562 C   0  0  0  0  0  0  0  0  0  0  0  0
    5.3532  -49.1514  -28.2757 C   0  0  0  0  0  0  0  0  0  0  0  0
    6.0087  -48.6456  -29.3830 C   0  0  0  0  0  0  0  0  0  0  0  0
    8.1826  -47.6268  -31.4892 N   0  0  0  0  0  0  0  0  0  0  0  0
    6.8755  -46.6195  -30.9882 S   0  0  0  0  0  0  0  0  0  0  0  0
    7.4469  -45.2640  -30.6861 O   0  0  0  0  0  0  0  0  0  0  0  0
    5.8496  -46.4389  -32.0666 O   0  0  0  0  0  0  0  0  0  0  0  0
    8.4634  -48.2265  -30.6879 H   0  0  0  0  0  0  0  0  0  0  0  0
    7.8517  -48.1841  -32.3031 H   0  0  0  0  0  0  0  0  0  0  0  0
    1.9766  -50.4234  -22.7549 C   0  0  0  0  0  0  0  0  0  0  0  0
    0.9818  -51.1609  -22.9343 O   0  0  0  0  0  0  0  0  0  0  0  0
    2.4018  -50.0559  -21.4713 N   0  0  0  0  0  0  0  0  0  0  0  0
    3.2560  -49.4257  -21.3352 H   0  0  0  0  0  0  0  0  0  0  0  0
    1.7585  -50.4869  -20.2875 C   0  0  0  0  0  0  0  0  0  0  0  0
    0.7045  -51.3457  -20.1923 C   0  0  0  0  0  0  0  0  0  0  0  0
    0.1087  -51.6966  -18.9827 C   0  0  0  0  0  0  0  0  0  0  0  0
    0.5750  -51.1745  -17.7961 C   0  0  0  0  0  0  0  0  0  0  0  0
    1.6329  -50.3133  -17.8879 C   0  0  0  0  0  0  0  0  0  0  0  0
    2.2275  -49.9599  -19.0711 C   0  0  0  0  0  0  0  0  0  0  0  0
   -0.0149  -51.5116  -16.5102 C   0  0  0  0  0  0  0  0  0  0  0  0
   -0.2990  -50.5385  -15.5680 O   0  0  0  0  0  0  0  0  0  0  0  0
   -0.2684  -52.7129  -16.2587 O   0  0  0  0  0  0  0  0  0  0  0  0
   -0.8071  -49.6973  -15.7340 H   0  0  0  0  0  0  0  0  0  0  0  0
 13 14  1  0  0  0
 14 15  2  0  0  0
 14 16  2  0  0  0
 14  7  1  0  0  0
  7  8  2  0  0  0
  8  9  1  0  0  0
  9 10  2  0  0  0
 10 11  1  0  0  0
 11 12  2  0  0  0
 10  1  1  0  0  0
  1  2  2  0  0  0
  2  3  1  0  0  0
  3  4  2  0  0  0
  4  5  1  0  0  0
  5  6  2  0  0  0
  4 19  1  0  0  0
 19 20  2  0  0  0
 19 21  1  0  0  0
 21 23  1  0  0  0
 23 24  2  0  0  0
 24 25  1  0  0  0
 25 26  2  0  0  0
 26 27  1  0  0  0
 27 28  2  0  0  0
 26 29  1  0  0  0
 29 30  1  0  0  0
 29 31  2  0  0  0
 12  7  1  0  0  0
  6  1  1  0  0  0
 28 23  1  0  0  0
 13 17  1  0  0  0
 13 18  1  0  0  0
 21 22  1  0  0  0
 30 32  1  0  0  0
M  END
> <minimizedAffinity>
-3.31257

> <CNNscore>
0.2653952539

> <CNNaffinity>
4.8608770370

> <CNN_VS>
1.2900537252

> <CNNaffinity_variance>
0.7455453873

$$$$
[H]OC(=O)C([H])([H])[C@@]([H])(C(=O)N([H])[C@]([H])(C(=O)O[H])C([H])([H])c1c([H])c([H])c([H])c([H])c1[H])N([H])C(=O)[C@@]([H])(N([H])C(=O)c1c([H])c([H])c(C#N)c([H])c1[H])C([H])([H])C([H])(C([H])([H])[H])C([H])([H])[H]


 43 44  0  0  0  0  0  0  0  0999 V2000
    3.8117  -49.9599  -25.8612 C   0  0  0  0  0  0  0  0  0  0  0  0
    2.1593  -51.6957  -26.6289 C   0  0  0  0  0  0  0  0  0  0  0  0
    2.6577  -51.8534  -27.7560 O   0  0  0  0  0  0  0  0  0  0  0  0
    2.6495  -50.8037  -25.6513 N   0  0  0  0  0  0  0  0  0  0  0  0
    2.1661  -50.7338  -24.7379 H   0  0  0  0  0  0  0  0  0  0  0  0
    0.9390  -52.5150  -26.2777 C   0  0  0  0  0  0  0  0  0  0  0  0
    0.7463  -52.3821  -24.8459 N   0  0  0  0  0  0  0  0  0  0  0  0
   -0.0917  -53.2604  -24.1146 C   0  0  0  0  0  0  0  0  0  0  0  0
   -0.6784  -54.1631  -24.7738 O   0  0  0  0  0  0  0  0  0  0  0  0
    1.2416  -51.6197  -24.3486 H   0  0  0  0  0  0  0  0  0  0  0  0
   -0.3303  -53.2124  -22.6836 C   0  0  0  0  0  0  0  0  0  0  0  0
   -0.9451  -54.2100  -21.9596 C   0  0  0  0  0  0  0  0  0  0  0  0
   -1.1431  -54.1033  -20.5859 C   0  0  0  0  0  0  0  0  0  0  0  0
   -0.7329  -52.9928  -19.8970 C   0  0  0  0  0  0  0  0  0  0  0  0
   -0.1120  -51.9717  -20.6001 C   0  0  0  0  0  0  0  0  0  0  0  0
    0.0779  -52.0928  -21.9575 C   0  0  0  0  0  0  0  0  0  0  0  0
   -0.9434  -52.8619  -18.4634 C   0  0  0  0  0  0  0  0  0  0  0  0
   -1.1188  -52.7448  -17.3238 N   0  0  0  0  0  0  0  0  0  0  0  0
   -0.1735  -51.9038  -27.0541 C   0  0  0  0  0  0  0  0  0  0  0  0
   -0.3575  -52.7513  -29.4393 C   0  0  0  0  0  0  0  0  0  0  0  0
   -0.8857  -52.7311  -28.0538 C   0  0  0  0  0  0  0  0  0  0  0  0
   -2.3990  -52.4610  -28.0039 C   0  0  0  0  0  0  0  0  0  0  0  0
    4.5019  -49.5854  -24.6363 C   0  0  0  0  0  0  0  0  0  0  0  0
    4.6207  -48.3483  -24.3077 O   0  0  0  0  0  0  0  0  0  0  0  0
    5.0793  -50.5125  -23.7317 N   0  0  0  0  0  0  0  0  0  0  0  0
    5.0154  -51.5555  -23.8869 H   0  0  0  0  0  0  0  0  0  0  0  0
    5.7828  -50.0882  -22.5301 C   0  0  0  0  0  0  0  0  0  0  0  0
    7.2235  -50.2894  -22.7520 C   0  0  0  0  0  0  0  0  0  0  0  0
    7.6562  -51.2180  -23.6986 O   0  0  0  0  0  0  0  0  0  0  0  0
    8.1346  -49.6706  -22.1349 O   0  0  0  0  0  0  0  0  0  0  0  0
    8.3189  -51.9687  -23.4871 H   0  0  0  0  0  0  0  0  0  0  0  0
    5.3379  -50.9214  -21.3474 C   0  0  0  0  0  0  0  0  0  0  0  0
    4.2110  -50.3359  -20.5932 C   0  0  0  0  0  0  0  0  0  0  0  0
    3.7077  -49.0900  -20.8621 C   0  0  0  0  0  0  0  0  0  0  0  0
    2.6540  -48.5191  -20.1650 C   0  0  0  0  0  0  0  0  0  0  0  0
    2.1139  -49.2702  -19.1662 C   0  0  0  0  0  0  0  0  0  0  0  0
    2.5619  -50.5379  -18.8321 C   0  0  0  0  0  0  0  0  0  0  0  0
    3.6195  -51.0627  -19.5587 C   0  0  0  0  0  0  0  0  0  0  0  0
    3.2587  -48.7006  -26.5591 C   0  0  0  0  0  0  0  0  0  0  0  0
    3.9303  -48.4233  -27.8327 C   0  0  0  0  0  0  0  0  0  0  0  0
    4.4530  -49.4476  -28.6085 O   0  0  0  0  0  0  0  0  0  0  0  0
    4.0679  -47.2608  -28.2794 O   0  0  0  0  0  0  0  0  0  0  0  0
    4.9038  -49.2906  -29.5100 H   0  0  0  0  0  0  0  0  0  0  0  0
 20 21  1  0  0  0
 21 22  1  0  0  0
 21 19  1  0  0  0
 19  6  1  0  0  0
  6  7  1  0  0  0
  7  8  1  0  0  0
  8  9  2  0  0  0
  8 11  1  0  0  0
 11 12  2  0  0  0
 12 13  1  0  0  0
 13 14  2  0  0  0
 14 15  1  0  0  0
 15 16  2  0  0  0
 14 17  1  0  0  0
 17 18  3  0  0  0
  6  2  1  0  0  0
  2  3  2  0  0  0
  2  4  1  0  0  0
  4  1  1  0  0  0
  1 39  1  0  0  0
 39 40  1  0  0  0
 40 41  1  0  0  0
 40 42  2  0  0  0
  1 23  1  0  0  0
 23 24  2  0  0  0
 23 25  1  0  0  0
 25 27  1  0  0  0
 27 32  1  0  0  0
 32 33  1  0  0  0
 33 34  2  0  0  0
 34 35  1  0  0  0
 35 36  2  0  0  0
 36 37  1  0  0  0
 37 38  2  0  0  0
 27 28  1  0  0  0
 28 29  1  0  0  0
 28 30  2  0  0  0
 16 11  1  0  0  0
 38 33  1  0  0  0
  7 10  1  0  0  0
  4  5  1  0  0  0
 41 43  1  0  0  0
 25 26  1  0  0  0
 29 31  1  0  0  0
M  END
> <minimizedAffinity>
-7.91192

> <CNNscore>
0.1669878513

> <CNNaffinity>
6.3513674736

> <CNN_VS>
1.0606012344

> <CNNaffinity_variance>
0.3258145452

$$$$
[H]OC(=O)C([H])([H])[C@@]([H])(C(=O)N([H])[C@]([H])(C(=O)O[H])C([H])([H])c1c([H])c([H])c([H])c([H])c1[H])N([H])C(=O)[C@@]([H])(N([H])C(=O)c1c([H])c([H])c(C#N)c([H])c1[H])C([H])([H])C([H])(C([H])([H])[H])C([H])([H])[H]


 43 44  0  0  0  0  0  0  0  0999 V2000
    3.7641  -50.3052  -25.1359 C   0  0  0  0  0  0  0  0  0  0  0  0
    2.6165  -52.4827  -25.6597 C   0  0  0  0  0  0  0  0  0  0  0  0
    3.4747  -52.8868  -26.4621 O   0  0  0  0  0  0  0  0  0  0  0  0
    2.6743  -51.2502  -24.9747 N   0  0  0  0  0  0  0  0  0  0  0  0
    1.9091  -50.9919  -24.3260 H   0  0  0  0  0  0  0  0  0  0  0  0
    1.4228  -53.3717  -25.3983 C   0  0  0  0  0  0  0  0  0  0  0  0
    1.2236  -53.3894  -23.9613 N   0  0  0  0  0  0  0  0  0  0  0  0
    0.3702  -52.4653  -23.3083 C   0  0  0  0  0  0  0  0  0  0  0  0
   -0.2031  -51.6103  -24.0389 O   0  0  0  0  0  0  0  0  0  0  0  0
    1.7230  -54.1042  -23.4012 H   0  0  0  0  0  0  0  0  0  0  0  0
    0.0999  -52.4189  -21.8830 C   0  0  0  0  0  0  0  0  0  0  0  0
    0.6117  -51.4747  -21.0204 C   0  0  0  0  0  0  0  0  0  0  0  0
    0.3121  -51.4846  -19.6612 C   0  0  0  0  0  0  0  0  0  0  0  0
   -0.5076  -52.4420  -19.1250 C   0  0  0  0  0  0  0  0  0  0  0  0
   -1.0366  -53.4063  -19.9695 C   0  0  0  0  0  0  0  0  0  0  0  0
   -0.7323  -53.3822  -21.3111 C   0  0  0  0  0  0  0  0  0  0  0  0
   -0.8204  -52.4721  -17.7045 C   0  0  0  0  0  0  0  0  0  0  0  0
   -1.0580  -52.4865  -16.5703 N   0  0  0  0  0  0  0  0  0  0  0  0
    0.2924  -52.7217  -26.1148 C   0  0  0  0  0  0  0  0  0  0  0  0
    0.4194  -54.5592  -27.8609 C   0  0  0  0  0  0  0  0  0  0  0  0
   -0.3241  -53.4241  -27.2627 C   0  0  0  0  0  0  0  0  0  0  0  0
   -0.8111  -52.4170  -28.3182 C   0  0  0  0  0  0  0  0  0  0  0  0
    4.1963  -49.6807  -23.8949 C   0  0  0  0  0  0  0  0  0  0  0  0
    5.3254  -49.9946  -23.3664 O   0  0  0  0  0  0  0  0  0  0  0  0
    3.4438  -48.7086  -23.1878 N   0  0  0  0  0  0  0  0  0  0  0  0
    2.5153  -48.3545  -23.5461 H   0  0  0  0  0  0  0  0  0  0  0  0
    3.9070  -48.1300  -21.9350 C   0  0  0  0  0  0  0  0  0  0  0  0
    2.8675  -48.3560  -20.9183 C   0  0  0  0  0  0  0  0  0  0  0  0
    1.5294  -48.1141  -21.2290 O   0  0  0  0  0  0  0  0  0  0  0  0
    3.0926  -48.7645  -19.7451 O   0  0  0  0  0  0  0  0  0  0  0  0
    0.9242  -47.5060  -20.6712 H   0  0  0  0  0  0  0  0  0  0  0  0
    4.1282  -46.6419  -22.1017 C   0  0  0  0  0  0  0  0  0  0  0  0
    3.7271  -46.1221  -23.4248 C   0  0  0  0  0  0  0  0  0  0  0  0
    4.5817  -46.0831  -24.4953 C   0  0  0  0  0  0  0  0  0  0  0  0
    4.2283  -45.5961  -25.7444 C   0  0  0  0  0  0  0  0  0  0  0  0
    2.9514  -45.1424  -25.8760 C   0  0  0  0  0  0  0  0  0  0  0  0
    2.0254  -45.1487  -24.8455 C   0  0  0  0  0  0  0  0  0  0  0  0
    2.4295  -45.6445  -23.6156 C   0  0  0  0  0  0  0  0  0  0  0  0
    3.2127  -49.2343  -26.0992 C   0  0  0  0  0  0  0  0  0  0  0  0
    4.1626  -48.8924  -27.1625 C   0  0  0  0  0  0  0  0  0  0  0  0
    5.5298  -48.8765  -26.9283 O   0  0  0  0  0  0  0  0  0  0  0  0
    3.7932  -48.5975  -28.3229 O   0  0  0  0  0  0  0  0  0  0  0  0
    6.2176  -48.6671  -27.6519 H   0  0  0  0  0  0  0  0  0  0  0  0
 20 21  1  0  0  0
 21 22  1  0  0  0
 21 19  1  0  0  0
 19  6  1  0  0  0
  6  7  1  0  0  0
  7  8  1  0  0  0
  8  9  2  0  0  0
  8 11  1  0  0  0
 11 12  2  0  0  0
 12 13  1  0  0  0
 13 14  2  0  0  0
 14 15  1  0  0  0
 15 16  2  0  0  0
 14 17  1  0  0  0
 17 18  3  0  0  0
  6  2  1  0  0  0
  2  3  2  0  0  0
  2  4  1  0  0  0
  4  1  1  0  0  0
  1 39  1  0  0  0
 39 40  1  0  0  0
 40 41  1  0  0  0
 40 42  2  0  0  0
  1 23  1  0  0  0
 23 24  2  0  0  0
 23 25  1  0  0  0
 25 27  1  0  0  0
 27 32  1  0  0  0
 32 33  1  0  0  0
 33 34  2  0  0  0
 34 35  1  0  0  0
 35 36  2  0  0  0
 36 37  1  0  0  0
 37 38  2  0  0  0
 27 28  1  0  0  0
 28 29  1  0  0  0
 28 30  2  0  0  0
 16 11  1  0  0  0
 38 33  1  0  0  0
  7 10  1  0  0  0
  4  5  1  0  0  0
 41 43  1  0  0  0
 25 26  1  0  0  0
 29 31  1  0  0  0
M  END
> <minimizedAffinity>
-6.53731

> <CNNscore>
0.1526927203

> <CNNaffinity>
5.9395761490

> <CNN_VS>
0.9069300294

> <CNNaffinity_variance>
0.2910302877

$$$$
[H]OC(=O)C([H])([H])[C@@]([H])(C(=O)N([H])[C@]([H])(C(=O)O[H])C([H])([H])c1c([H])c([H])c([H])c([H])c1[H])N([H])C(=O)[C@@]([H])(N([H])C(=O)c1c([H])c([H])c(C#N)c([H])c1[H])C([H])([H])C([H])(C([H])([H])[H])C([H])([H])[H]


 43 44  0  0  0  0  0  0  0  0999 V2000
    3.8812  -50.2043  -25.9311 C   0  0  0  0  0  0  0  0  0  0  0  0
    2.1597  -51.8765  -26.6883 C   0  0  0  0  0  0  0  0  0  0  0  0
    2.6851  -52.1069  -27.7904 O   0  0  0  0  0  0  0  0  0  0  0  0
    2.6671  -50.9738  -25.7294 N   0  0  0  0  0  0  0  0  0  0  0  0
    2.1588  -50.8404  -24.8368 H   0  0  0  0  0  0  0  0  0  0  0  0
    0.8845  -52.6125  -26.3485 C   0  0  0  0  0  0  0  0  0  0  0  0
    0.6799  -52.4538  -24.9210 N   0  0  0  0  0  0  0  0  0  0  0  0
   -0.1051  -53.3621  -24.1676 C   0  0  0  0  0  0  0  0  0  0  0  0
   -0.6336  -54.3161  -24.8033 O   0  0  0  0  0  0  0  0  0  0  0  0
    1.1262  -51.6497  -24.4435 H   0  0  0  0  0  0  0  0  0  0  0  0
   -0.3503  -53.2909  -22.7387 C   0  0  0  0  0  0  0  0  0  0  0  0
   -1.0899  -54.2085  -22.0257 C   0  0  0  0  0  0  0  0  0  0  0  0
   -1.2871  -54.0837  -20.6535 C   0  0  0  0  0  0  0  0  0  0  0  0
   -0.7508  -53.0347  -19.9549 C   0  0  0  0  0  0  0  0  0  0  0  0
   -0.0023  -52.0946  -20.6469 C   0  0  0  0  0  0  0  0  0  0  0  0
    0.1849  -52.2327  -22.0030 C   0  0  0  0  0  0  0  0  0  0  0  0
   -0.9580  -52.8847  -18.5227 C   0  0  0  0  0  0  0  0  0  0  0  0
   -1.1085  -52.7689  -17.3795 N   0  0  0  0  0  0  0  0  0  0  0  0
   -0.1751  -51.9389  -27.1469 C   0  0  0  0  0  0  0  0  0  0  0  0
   -0.5950  -52.8008  -29.4968 C   0  0  0  0  0  0  0  0  0  0  0  0
   -0.9985  -52.7511  -28.0707 C   0  0  0  0  0  0  0  0  0  0  0  0
   -2.4921  -52.4312  -27.8916 C   0  0  0  0  0  0  0  0  0  0  0  0
    4.5594  -49.8324  -24.6987 C   0  0  0  0  0  0  0  0  0  0  0  0
    5.8098  -49.5341  -24.7078 O   0  0  0  0  0  0  0  0  0  0  0  0
    3.9281  -49.7659  -23.4305 N   0  0  0  0  0  0  0  0  0  0  0  0
    2.8969  -49.9616  -23.3110 H   0  0  0  0  0  0  0  0  0  0  0  0
    4.6551  -49.4128  -22.2199 C   0  0  0  0  0  0  0  0  0  0  0  0
    5.0619  -50.6603  -21.5540 C   0  0  0  0  0  0  0  0  0  0  0  0
    6.3917  -51.0768  -21.6143 O   0  0  0  0  0  0  0  0  0  0  0  0
    4.2802  -51.4138  -20.9096 O   0  0  0  0  0  0  0  0  0  0  0  0
    6.6754  -52.0055  -21.9373 H   0  0  0  0  0  0  0  0  0  0  0  0
    3.7614  -48.6188  -21.2915 C   0  0  0  0  0  0  0  0  0  0  0  0
    3.9340  -47.1560  -21.4011 C   0  0  0  0  0  0  0  0  0  0  0  0
    3.6040  -46.4539  -22.5308 C   0  0  0  0  0  0  0  0  0  0  0  0
    3.7611  -45.0823  -22.6573 C   0  0  0  0  0  0  0  0  0  0  0  0
    4.2726  -44.4312  -21.5765 C   0  0  0  0  0  0  0  0  0  0  0  0
    4.6293  -45.0653  -20.3975 C   0  0  0  0  0  0  0  0  0  0  0  0
    4.4540  -46.4385  -20.3227 C   0  0  0  0  0  0  0  0  0  0  0  0
    3.4203  -48.9376  -26.6804 C   0  0  0  0  0  0  0  0  0  0  0  0
    4.3056  -48.5918  -27.7970 C   0  0  0  0  0  0  0  0  0  0  0  0
    5.6855  -48.6496  -27.6658 O   0  0  0  0  0  0  0  0  0  0  0  0
    3.8674  -48.2276  -28.9129 O   0  0  0  0  0  0  0  0  0  0  0  0
    6.3280  -48.4395  -28.4296 H   0  0  0  0  0  0  0  0  0  0  0  0
 20 21  1  0  0  0
 21 22  1  0  0  0
 21 19  1  0  0  0
 19  6  1  0  0  0
  6  7  1  0  0  0
  7  8  1  0  0  0
  8  9  2  0  0  0
  8 11  1  0  0  0
 11 12  2  0  0  0
 12 13  1  0  0  0
 13 14  2  0  0  0
 14 15  1  0  0  0
 15 16  2  0  0  0
 14 17  1  0  0  0
 17 18  3  0  0  0
  6  2  1  0  0  0
  2  3  2  0  0  0
  2  4  1  0  0  0
  4  1  1  0  0  0
  1 39  1  0  0  0
 39 40  1  0  0  0
 40 41  1  0  0  0
 40 42  2  0  0  0
  1 23  1  0  0  0
 23 24  2  0  0  0
 23 25  1  0  0  0
 25 27  1  0  0  0
 27 32  1  0  0  0
 32 33  1  0  0  0
 33 34  2  0  0  0
 34 35  1  0  0  0
 35 36  2  0  0  0
 36 37  1  0  0  0
 37 38  2  0  0  0
 27 28  1  0  0  0
 28 29  1  0  0  0
 28 30  2  0  0  0
 16 11  1  0  0  0
 38 33  1  0  0  0
  7 10  1  0  0  0
  4  5  1  0  0  0
 41 43  1  0  0  0
 25 26  1  0  0  0
 29 31  1  0  0  0
M  END
> <minimizedAffinity>
-7.46891

> <CNNscore>
0.1342169940

> <CNNaffinity>
6.1798911095

> <CNN_VS>
0.8294464350

> <CNNaffinity_variance>
0.2275003493

$$$$
[H]OC(=O)C([H])([H])[C@@]([H])(C(=O)N([H])[C@]([H])(C(=O)O[H])C([H])([H])c1c([H])c([H])c([H])c([H])c1[H])N([H])C(=O)[C@@]([H])(N([H])C(=O)c1c([H])c([H])c(C#N)c([H])c1[H])C([H])([H])C([H])(C([H])([H])[H])C([H])([H])[H]


 43 44  0  0  0  0  0  0  0  0999 V2000
    3.1677  -49.9382  -25.1368 C   0  0  0  0  0  0  0  0  0  0  0  0
    3.6474  -48.7584  -22.9664 C   0  0  0  0  0  0  0  0  0  0  0  0
    2.8924  -47.7946  -23.1782 O   0  0  0  0  0  0  0  0  0  0  0  0
    3.8424  -49.8367  -23.8557 N   0  0  0  0  0  0  0  0  0  0  0  0
    4.4971  -50.5970  -23.5982 H   0  0  0  0  0  0  0  0  0  0  0  0
    4.4150  -48.7788  -21.6649 C   0  0  0  0  0  0  0  0  0  0  0  0
    3.4388  -48.9696  -20.6088 N   0  0  0  0  0  0  0  0  0  0  0  0
    2.7036  -50.1735  -20.4719 C   0  0  0  0  0  0  0  0  0  0  0  0
    2.9292  -51.0749  -21.3263 O   0  0  0  0  0  0  0  0  0  0  0  0
    3.2805  -48.1976  -19.9358 H   0  0  0  0  0  0  0  0  0  0  0  0
    1.7222  -50.4573  -19.4407 C   0  0  0  0  0  0  0  0  0  0  0  0
    0.9524  -51.5983  -19.3868 C   0  0  0  0  0  0  0  0  0  0  0  0
    0.0280  -51.8115  -18.3683 C   0  0  0  0  0  0  0  0  0  0  0  0
   -0.1544  -50.8868  -17.3744 C   0  0  0  0  0  0  0  0  0  0  0  0
    0.6061  -49.7277  -17.4036 C   0  0  0  0  0  0  0  0  0  0  0  0
    1.5169  -49.5323  -18.4162 C   0  0  0  0  0  0  0  0  0  0  0  0
   -1.1250  -51.0904  -16.3099 C   0  0  0  0  0  0  0  0  0  0  0  0
   -1.8959  -51.2675  -15.4630 N   0  0  0  0  0  0  0  0  0  0  0  0
    5.3473  -49.9323  -21.7841 C   0  0  0  0  0  0  0  0  0  0  0  0
    7.2632  -48.2821  -21.5659 C   0  0  0  0  0  0  0  0  0  0  0  0
    6.8051  -49.6754  -21.7849 C   0  0  0  0  0  0  0  0  0  0  0  0
    7.4716  -50.3298  -23.0067 C   0  0  0  0  0  0  0  0  0  0  0  0
    2.7180  -51.2824  -25.4656 C   0  0  0  0  0  0  0  0  0  0  0  0
    3.3603  -52.3083  -25.0325 O   0  0  0  0  0  0  0  0  0  0  0  0
    1.5775  -51.5696  -26.2580 N   0  0  0  0  0  0  0  0  0  0  0  0
    0.9588  -50.8040  -26.6415 H   0  0  0  0  0  0  0  0  0  0  0  0
    1.1810  -52.9323  -26.5814 C   0  0  0  0  0  0  0  0  0  0  0  0
    1.3517  -53.1235  -28.0304 C   0  0  0  0  0  0  0  0  0  0  0  0
    2.4444  -53.8452  -28.5107 O   0  0  0  0  0  0  0  0  0  0  0  0
    0.5643  -52.6723  -28.9081 O   0  0  0  0  0  0  0  0  0  0  0  0
    3.0935  -53.4808  -29.2130 H   0  0  0  0  0  0  0  0  0  0  0  0
   -0.2716  -53.1501  -26.2159 C   0  0  0  0  0  0  0  0  0  0  0  0
   -0.4903  -53.4497  -24.7863 C   0  0  0  0  0  0  0  0  0  0  0  0
   -0.3693  -52.5019  -23.8040 C   0  0  0  0  0  0  0  0  0  0  0  0
   -0.5658  -52.7613  -22.4563 C   0  0  0  0  0  0  0  0  0  0  0  0
   -0.8988  -54.0405  -22.1303 C   0  0  0  0  0  0  0  0  0  0  0  0
   -1.0432  -55.0562  -23.0614 C   0  0  0  0  0  0  0  0  0  0  0  0
   -0.8340  -54.7451  -24.3960 C   0  0  0  0  0  0  0  0  0  0  0  0
    4.2141  -49.4672  -26.1673 C   0  0  0  0  0  0  0  0  0  0  0  0
    3.6958  -48.4238  -27.0577 C   0  0  0  0  0  0  0  0  0  0  0  0
    3.8666  -48.5008  -28.4322 O   0  0  0  0  0  0  0  0  0  0  0  0
    3.0821  -47.4194  -26.6284 O   0  0  0  0  0  0  0  0  0  0  0  0
    3.4973  -47.8051  -29.0804 H   0  0  0  0  0  0  0  0  0  0  0  0
 20 21  1  0  0  0
 21 22  1  0  0  0
 21 19  1  0  0  0
 19  6  1  0  0  0
  6  7  1  0  0  0
  7  8  1  0  0  0
  8  9  2  0  0  0
  8 11  1  0  0  0
 11 12  2  0  0  0
 12 13  1  0  0  0
 13 14  2  0  0  0
 14 15  1  0  0  0
 15 16  2  0  0  0
 14 17  1  0  0  0
 17 18  3  0  0  0
  6  2  1  0  0  0
  2  3  2  0  0  0
  2  4  1  0  0  0
  4  1  1  0  0  0
  1 39  1  0  0  0
 39 40  1  0  0  0
 40 41  1  0  0  0
 40 42  2  0  0  0
  1 23  1  0  0  0
 23 24  2  0  0  0
 23 25  1  0  0  0
 25 27  1  0  0  0
 27 32  1  0  0  0
 32 33  1  0  0  0
 33 34  2  0  0  0
 34 35  1  0  0  0
 35 36  2  0  0  0
 36 37  1  0  0  0
 37 38  2  0  0  0
 27 28  1  0  0  0
 28 29  1  0  0  0
 28 30  2  0  0  0
 16 11  1  0  0  0
 38 33  1  0  0  0
  7 10  1  0  0  0
  4  5  1  0  0  0
 41 43  1  0  0  0
 25 26  1  0  0  0
 29 31  1  0  0  0
M  END
> <minimizedAffinity>
-7.12581

> <CNNscore>
0.1301022619

> <CNNaffinity>
6.4445390701

> <CNN_VS>
0.8384491205

> <CNNaffinity_variance>
0.0984032750

$$$$
[H]OC(=O)C([H])([H])[C@@]([H])(C(=O)N([H])[C@]([H])(C(=O)O[H])C([H])([H])c1c([H])c([H])c([H])c([H])c1[H])N([H])C(=O)[C@@]([H])(N([H])C(=O)c1c([H])c([H])c(C#N)c([H])c1[H])C([H])([H])C([H])(C([H])([H])[H])C([H])([H])[H]


 43 44  0  0  0  0  0  0  0  0999 V2000
    3.7134  -51.1708  -25.0952 C   0  0  0  0  0  0  0  0  0  0  0  0
    3.4756  -48.9973  -26.3410 C   0  0  0  0  0  0  0  0  0  0  0  0
    3.5705  -49.4926  -27.4765 O   0  0  0  0  0  0  0  0  0  0  0  0
    3.5341  -49.7310  -25.1370 N   0  0  0  0  0  0  0  0  0  0  0  0
    3.4506  -49.2328  -24.2326 H   0  0  0  0  0  0  0  0  0  0  0  0
    3.2859  -47.5015  -26.2389 C   0  0  0  0  0  0  0  0  0  0  0  0
    3.8089  -47.1029  -24.9457 N   0  0  0  0  0  0  0  0  0  0  0  0
    3.2263  -46.0561  -24.1885 C   0  0  0  0  0  0  0  0  0  0  0  0
    2.2312  -45.4725  -24.7012 O   0  0  0  0  0  0  0  0  0  0  0  0
    4.6335  -47.6049  -24.5693 H   0  0  0  0  0  0  0  0  0  0  0  0
    3.6712  -45.6020  -22.8836 C   0  0  0  0  0  0  0  0  0  0  0  0
    4.1997  -44.3559  -22.6277 C   0  0  0  0  0  0  0  0  0  0  0  0
    4.6071  -43.9804  -21.3508 C   0  0  0  0  0  0  0  0  0  0  0  0
    4.4991  -44.8430  -20.2924 C   0  0  0  0  0  0  0  0  0  0  0  0
    3.9716  -46.1050  -20.5204 C   0  0  0  0  0  0  0  0  0  0  0  0
    3.5719  -46.4606  -21.7880 C   0  0  0  0  0  0  0  0  0  0  0  0
    4.9315  -44.4690  -18.9545 C   0  0  0  0  0  0  0  0  0  0  0  0
    5.2801  -44.1854  -17.8863 N   0  0  0  0  0  0  0  0  0  0  0  0
    4.0764  -46.9339  -27.3645 C   0  0  0  0  0  0  0  0  0  0  0  0
    1.9468  -45.8236  -28.1852 C   0  0  0  0  0  0  0  0  0  0  0  0
    3.3735  -46.1589  -28.4116 C   0  0  0  0  0  0  0  0  0  0  0  0
    3.6217  -46.7718  -29.8002 C   0  0  0  0  0  0  0  0  0  0  0  0
    2.5012  -51.9106  -24.7789 C   0  0  0  0  0  0  0  0  0  0  0  0
    2.5523  -53.1722  -24.5373 O   0  0  0  0  0  0  0  0  0  0  0  0
    1.2089  -51.3305  -24.7092 N   0  0  0  0  0  0  0  0  0  0  0  0
    1.0538  -50.2966  -24.8605 H   0  0  0  0  0  0  0  0  0  0  0  0
    0.0206  -52.1174  -24.4135 C   0  0  0  0  0  0  0  0  0  0  0  0
    0.0730  -52.5039  -22.9946 C   0  0  0  0  0  0  0  0  0  0  0  0
    0.2988  -51.5326  -22.0192 O   0  0  0  0  0  0  0  0  0  0  0  0
   -0.0736  -53.6837  -22.5696 O   0  0  0  0  0  0  0  0  0  0  0  0
    1.0421  -51.6016  -21.3192 H   0  0  0  0  0  0  0  0  0  0  0  0
   -0.0018  -53.3646  -25.2708 C   0  0  0  0  0  0  0  0  0  0  0  0
   -0.3522  -53.1132  -26.6835 C   0  0  0  0  0  0  0  0  0  0  0  0
    0.5281  -53.3206  -27.7130 C   0  0  0  0  0  0  0  0  0  0  0  0
    0.2225  -53.0877  -29.0452 C   0  0  0  0  0  0  0  0  0  0  0  0
   -1.0331  -52.6299  -29.3051 C   0  0  0  0  0  0  0  0  0  0  0  0
   -1.9825  -52.3963  -28.3235 C   0  0  0  0  0  0  0  0  0  0  0  0
   -1.6262  -52.6434  -27.0068 C   0  0  0  0  0  0  0  0  0  0  0  0
    4.7713  -51.4005  -23.9967 C   0  0  0  0  0  0  0  0  0  0  0  0
    4.9269  -50.2394  -23.1148 C   0  0  0  0  0  0  0  0  0  0  0  0
    5.7400  -49.1721  -23.4672 O   0  0  0  0  0  0  0  0  0  0  0  0
    4.3433  -50.1533  -22.0095 O   0  0  0  0  0  0  0  0  0  0  0  0
    5.8503  -48.3396  -22.8882 H   0  0  0  0  0  0  0  0  0  0  0  0
 20 21  1  0  0  0
 21 22  1  0  0  0
 21 19  1  0  0  0
 19  6  1  0  0  0
  6  7  1  0  0  0
  7  8  1  0  0  0
  8  9  2  0  0  0
  8 11  1  0  0  0
 11 12  2  0  0  0
 12 13  1  0  0  0
 13 14  2  0  0  0
 14 15  1  0  0  0
 15 16  2  0  0  0
 14 17  1  0  0  0
 17 18  3  0  0  0
  6  2  1  0  0  0
  2  3  2  0  0  0
  2  4  1  0  0  0
  4  1  1  0  0  0
  1 39  1  0  0  0
 39 40  1  0  0  0
 40 41  1  0  0  0
 40 42  2  0  0  0
  1 23  1  0  0  0
 23 24  2  0  0  0
 23 25  1  0  0  0
 25 27  1  0  0  0
 27 32  1  0  0  0
 32 33  1  0  0  0
 33 34  2  0  0  0
 34 35  1  0  0  0
 35 36  2  0  0  0
 36 37  1  0  0  0
 37 38  2  0  0  0
 27 28  1  0  0  0
 28 29  1  0  0  0
 28 30  2  0  0  0
 16 11  1  0  0  0
 38 33  1  0  0  0
  7 10  1  0  0  0
  4  5  1  0  0  0
 41 43  1  0  0  0
 25 26  1  0  0  0
 29 31  1  0  0  0
M  END
> <minimizedAffinity>
-6.32709

> <CNNscore>
0.1013080552

> <CNNaffinity>
5.5729255676

> <CNN_VS>
0.5645822287

> <CNNaffinity_variance>
0.3291220367

$$$$
[H]OC(=O)C([H])([H])[C@@]([H])(C(=O)N([H])[C@]([H])(C(=O)O[H])C([H])([H])c1c([H])c([H])c([H])c([H])c1[H])N([H])C(=O)[C@@]([H])(N([H])C(=O)c1c([H])c([H])c(C#N)c([H])c1[H])C([H])([H])C([H])(C([H])([H])[H])C([H])([H])[H]


 43 44  0  0  0  0  0  0  0  0999 V2000
    4.7970  -51.5977  -24.9291 C   0  0  0  0  0  0  0  0  0  0  0  0
    3.4519  -49.4914  -24.6346 C   0  0  0  0  0  0  0  0  0  0  0  0
    2.5189  -50.0247  -24.0110 O   0  0  0  0  0  0  0  0  0  0  0  0
    4.5898  -50.1733  -25.1159 N   0  0  0  0  0  0  0  0  0  0  0  0
    5.3182  -49.6474  -25.6316 H   0  0  0  0  0  0  0  0  0  0  0  0
    3.3633  -48.0064  -24.9000 C   0  0  0  0  0  0  0  0  0  0  0  0
    4.0411  -47.3458  -23.8005 N   0  0  0  0  0  0  0  0  0  0  0  0
    3.3994  -46.3691  -22.9986 C   0  0  0  0  0  0  0  0  0  0  0  0
    2.2052  -46.0882  -23.2958 O   0  0  0  0  0  0  0  0  0  0  0  0
    5.0249  -47.6023  -23.5998 H   0  0  0  0  0  0  0  0  0  0  0  0
    3.9925  -45.6707  -21.8728 C   0  0  0  0  0  0  0  0  0  0  0  0
    4.4498  -44.3719  -21.9115 C   0  0  0  0  0  0  0  0  0  0  0  0
    5.0082  -43.7577  -20.7941 C   0  0  0  0  0  0  0  0  0  0  0  0
    5.1271  -44.4272  -19.6052 C   0  0  0  0  0  0  0  0  0  0  0  0
    4.6761  -45.7367  -19.5370 C   0  0  0  0  0  0  0  0  0  0  0  0
    4.1251  -46.3294  -20.6497 C   0  0  0  0  0  0  0  0  0  0  0  0
    5.7191  -43.8025  -18.4322 C   0  0  0  0  0  0  0  0  0  0  0  0
    6.1771  -43.2994  -17.4940 N   0  0  0  0  0  0  0  0  0  0  0  0
    4.0644  -47.8030  -26.1965 C   0  0  0  0  0  0  0  0  0  0  0  0
    4.0256  -47.0534  -28.6210 C   0  0  0  0  0  0  0  0  0  0  0  0
    3.3103  -47.2300  -27.3341 C   0  0  0  0  0  0  0  0  0  0  0  0
    2.5539  -45.9626  -26.9016 C   0  0  0  0  0  0  0  0  0  0  0  0
    3.6028  -52.4030  -25.1353 C   0  0  0  0  0  0  0  0  0  0  0  0
    3.2321  -53.2572  -24.2489 O   0  0  0  0  0  0  0  0  0  0  0  0
    2.7739  -52.3197  -26.2830 N   0  0  0  0  0  0  0  0  0  0  0  0
    2.9671  -51.6312  -27.0606 H   0  0  0  0  0  0  0  0  0  0  0  0
    1.6018  -53.1652  -26.4560 C   0  0  0  0  0  0  0  0  0  0  0  0
    1.4246  -53.4072  -27.8966 C   0  0  0  0  0  0  0  0  0  0  0  0
    2.4621  -53.9731  -28.6375 O   0  0  0  0  0  0  0  0  0  0  0  0
    0.3747  -53.1351  -28.5429 O   0  0  0  0  0  0  0  0  0  0  0  0
    2.8393  -53.5505  -29.4898 H   0  0  0  0  0  0  0  0  0  0  0  0
    0.3741  -52.4670  -25.9116 C   0  0  0  0  0  0  0  0  0  0  0  0
   -0.0831  -52.9904  -24.6083 C   0  0  0  0  0  0  0  0  0  0  0  0
   -0.0497  -52.2460  -23.4583 C   0  0  0  0  0  0  0  0  0  0  0  0
   -0.4695  -52.7178  -22.2240 C   0  0  0  0  0  0  0  0  0  0  0  0
   -0.9370  -53.9961  -22.1938 C   0  0  0  0  0  0  0  0  0  0  0  0
   -1.0061  -54.8138  -23.3101 C   0  0  0  0  0  0  0  0  0  0  0  0
   -0.5722  -54.2948  -24.5201 C   0  0  0  0  0  0  0  0  0  0  0  0
    5.2777  -51.7341  -23.4700 C   0  0  0  0  0  0  0  0  0  0  0  0
    6.2343  -50.6886  -23.0935 C   0  0  0  0  0  0  0  0  0  0  0  0
    5.8557  -49.6218  -22.2916 O   0  0  0  0  0  0  0  0  0  0  0  0
    7.4279  -50.7026  -23.4742 O   0  0  0  0  0  0  0  0  0  0  0  0
    6.5022  -48.8920  -21.9917 H   0  0  0  0  0  0  0  0  0  0  0  0
 20 21  1  0  0  0
 21 22  1  0  0  0
 21 19  1  0  0  0
 19  6  1  0  0  0
  6  7  1  0  0  0
  7  8  1  0  0  0
  8  9  2  0  0  0
  8 11  1  0  0  0
 11 12  2  0  0  0
 12 13  1  0  0  0
 13 14  2  0  0  0
 14 15  1  0  0  0
 15 16  2  0  0  0
 14 17  1  0  0  0
 17 18  3  0  0  0
  6  2  1  0  0  0
  2  3  2  0  0  0
  2  4  1  0  0  0
  4  1  1  0  0  0
  1 39  1  0  0  0
 39 40  1  0  0  0
 40 41  1  0  0  0
 40 42  2  0  0  0
  1 23  1  0  0  0
 23 24  2  0  0  0
 23 25  1  0  0  0
 25 27  1  0  0  0
 27 32  1  0  0  0
 32 33  1  0  0  0
 33 34  2  0  0  0
 34 35  1  0  0  0
 35 36  2  0  0  0
 36 37  1  0  0  0
 37 38  2  0  0  0
 27 28  1  0  0  0
 28 29  1  0  0  0
 28 30  2  0  0  0
 16 11  1  0  0  0
 38 33  1  0  0  0
  7 10  1  0  0  0
  4  5  1  0  0  0
 41 43  1  0  0  0
 25 26  1  0  0  0
 29 31  1  0  0  0
M  END
> <minimizedAffinity>
-6.29060

> <CNNscore>
0.0988601148

> <CNNaffinity>
5.8348493576

> <CNN_VS>
0.5768339038

> <CNNaffinity_variance>
0.1814417541

$$$$
[H]OC(=O)C([H])([H])[C@@]([H])(C(=O)N([H])[C@]([H])(C(=O)O[H])C([H])([H])c1c([H])c([H])c([H])c([H])c1[H])N([H])C(=O)[C@@]([H])(N([H])C(=O)c1c([H])c([H])c(C#N)c([H])c1[H])C([H])([H])C([H])(C([H])([H])[H])C([H])([H])[H]


 43 44  0  0  0  0  0  0  0  0999 V2000
    3.3836  -48.4877  -24.1247 C   0  0  0  0  0  0  0  0  0  0  0  0
    2.5753  -48.1998  -21.7590 C   0  0  0  0  0  0  0  0  0  0  0  0
    1.4209  -48.6077  -21.9705 O   0  0  0  0  0  0  0  0  0  0  0  0
    3.5868  -48.1074  -22.7387 N   0  0  0  0  0  0  0  0  0  0  0  0
    4.5220  -47.7499  -22.4729 H   0  0  0  0  0  0  0  0  0  0  0  0
    2.9233  -47.7689  -20.3530 C   0  0  0  0  0  0  0  0  0  0  0  0
    1.8527  -48.2417  -19.4956 N   0  0  0  0  0  0  0  0  0  0  0  0
    1.8871  -49.5196  -18.8838 C   0  0  0  0  0  0  0  0  0  0  0  0
    2.8943  -50.2391  -19.1319 O   0  0  0  0  0  0  0  0  0  0  0  0
    1.0412  -47.6193  -19.3284 H   0  0  0  0  0  0  0  0  0  0  0  0
    0.8724  -50.0672  -18.0021 C   0  0  0  0  0  0  0  0  0  0  0  0
    0.3005  -51.3120  -18.1463 C   0  0  0  0  0  0  0  0  0  0  0  0
   -0.6689  -51.7801  -17.2639 C   0  0  0  0  0  0  0  0  0  0  0  0
   -1.0957  -51.0141  -16.2117 C   0  0  0  0  0  0  0  0  0  0  0  0
   -0.5383  -49.7558  -16.0423 C   0  0  0  0  0  0  0  0  0  0  0  0
    0.4200  -49.3079  -16.9222 C   0  0  0  0  0  0  0  0  0  0  0  0
   -2.1164  -51.4851  -15.2880 C   0  0  0  0  0  0  0  0  0  0  0  0
   -2.9295  -51.8466  -14.5457 N   0  0  0  0  0  0  0  0  0  0  0  0
    4.2194  -48.4357  -20.0540 C   0  0  0  0  0  0  0  0  0  0  0  0
    6.5574  -48.1986  -19.0951 C   0  0  0  0  0  0  0  0  0  0  0  0
    5.4193  -47.5978  -19.8320 C   0  0  0  0  0  0  0  0  0  0  0  0
    5.0238  -46.2172  -19.2815 C   0  0  0  0  0  0  0  0  0  0  0  0
    3.2742  -49.9231  -24.3360 C   0  0  0  0  0  0  0  0  0  0  0  0
    4.0486  -50.7349  -23.7084 O   0  0  0  0  0  0  0  0  0  0  0  0
    2.3409  -50.5304  -25.2144 N   0  0  0  0  0  0  0  0  0  0  0  0
    1.6365  -49.9612  -25.7584 H   0  0  0  0  0  0  0  0  0  0  0  0
    2.2861  -51.9715  -25.4119 C   0  0  0  0  0  0  0  0  0  0  0  0
    2.9067  -52.2760  -26.7109 C   0  0  0  0  0  0  0  0  0  0  0  0
    3.1960  -51.2416  -27.6008 O   0  0  0  0  0  0  0  0  0  0  0  0
    3.2100  -53.4372  -27.1030 O   0  0  0  0  0  0  0  0  0  0  0  0
    2.8745  -51.2298  -28.5723 H   0  0  0  0  0  0  0  0  0  0  0  0
    0.8464  -52.4386  -25.4239 C   0  0  0  0  0  0  0  0  0  0  0  0
    0.3901  -53.0031  -24.1375 C   0  0  0  0  0  0  0  0  0  0  0  0
    0.8393  -52.5450  -22.9267 C   0  0  0  0  0  0  0  0  0  0  0  0
    0.4281  -53.0622  -21.7078 C   0  0  0  0  0  0  0  0  0  0  0  0
   -0.4752  -54.0796  -21.7579 C   0  0  0  0  0  0  0  0  0  0  0  0
   -0.9803  -54.5990  -22.9388 C   0  0  0  0  0  0  0  0  0  0  0  0
   -0.5357  -54.0478  -24.1305 C   0  0  0  0  0  0  0  0  0  0  0  0
    4.6209  -47.9402  -24.8649 C   0  0  0  0  0  0  0  0  0  0  0  0
    4.6019  -46.4791  -24.9868 C   0  0  0  0  0  0  0  0  0  0  0  0
    5.4342  -45.8206  -25.8801 O   0  0  0  0  0  0  0  0  0  0  0  0
    3.8444  -45.7580  -24.2967 O   0  0  0  0  0  0  0  0  0  0  0  0
    5.4280  -44.8084  -26.0065 H   0  0  0  0  0  0  0  0  0  0  0  0
 20 21  1  0  0  0
 21 22  1  0  0  0
 21 19  1  0  0  0
 19  6  1  0  0  0
  6  7  1  0  0  0
  7  8  1  0  0  0
  8  9  2  0  0  0
  8 11  1  0  0  0
 11 12  2  0  0  0
 12 13  1  0  0  0
 13 14  2  0  0  0
 14 15  1  0  0  0
 15 16  2  0  0  0
 14 17  1  0  0  0
 17 18  3  0  0  0
  6  2  1  0  0  0
  2  3  2  0  0  0
  2  4  1  0  0  0
  4  1  1  0  0  0
  1 39  1  0  0  0
 39 40  1  0  0  0
 40 41  1  0  0  0
 40 42  2  0  0  0
  1 23  1  0  0  0
 23 24  2  0  0  0
 23 25  1  0  0  0
 25 27  1  0  0  0
 27 32  1  0  0  0
 32 33  1  0  0  0
 33 34  2  0  0  0
 34 35  1  0  0  0
 35 36  2  0  0  0
 36 37  1  0  0  0
 37 38  2  0  0  0
 27 28  1  0  0  0
 28 29  1  0  0  0
 28 30  2  0  0  0
 16 11  1  0  0  0
 38 33  1  0  0  0
  7 10  1  0  0  0
  4  5  1  0  0  0
 41 43  1  0  0  0
 25 26  1  0  0  0
 29 31  1  0  0  0
M  END
> <minimizedAffinity>
-6.68973

> <CNNscore>
0.0983715653

> <CNNaffinity>
5.7769231796

> <CNN_VS>
0.5682849884

> <CNNaffinity_variance>
0.2189984769

$$$$
[H]OC(=O)C([H])([H])[C@@]([H])(C(=O)N([H])[C@]([H])(C(=O)O[H])C([H])([H])c1c([H])c([H])c([H])c([H])c1[H])N([H])C(=O)[C@@]([H])(N([H])C(=O)c1c([H])c([H])c(C#N)c([H])c1[H])C([H])([H])C([H])(C([H])([H])[H])C([H])([H])[H]


 43 44  0  0  0  0  0  0  0  0999 V2000
    3.0259  -50.6063  -24.6939 C   0  0  0  0  0  0  0  0  0  0  0  0
    3.6622  -50.0338  -22.3275 C   0  0  0  0  0  0  0  0  0  0  0  0
    2.5053  -49.7989  -21.9399 O   0  0  0  0  0  0  0  0  0  0  0  0
    4.0059  -50.4280  -23.6382 N   0  0  0  0  0  0  0  0  0  0  0  0
    5.0000  -50.5983  -23.8745 H   0  0  0  0  0  0  0  0  0  0  0  0
    4.7840  -49.8853  -21.3260 C   0  0  0  0  0  0  0  0  0  0  0  0
    4.2358  -50.2415  -20.0308 N   0  0  0  0  0  0  0  0  0  0  0  0
    3.8359  -49.2622  -19.0877 C   0  0  0  0  0  0  0  0  0  0  0  0
    3.9924  -48.0555  -19.4236 O   0  0  0  0  0  0  0  0  0  0  0  0
    4.1347  -51.2457  -19.7954 H   0  0  0  0  0  0  0  0  0  0  0  0
    3.2650  -49.5256  -17.7794 C   0  0  0  0  0  0  0  0  0  0  0  0
    2.4678  -50.6077  -17.4777 C   0  0  0  0  0  0  0  0  0  0  0  0
    1.9516  -50.8044  -16.2001 C   0  0  0  0  0  0  0  0  0  0  0  0
    2.2170  -49.9216  -15.1870 C   0  0  0  0  0  0  0  0  0  0  0  0
    3.0159  -48.8221  -15.4618 C   0  0  0  0  0  0  0  0  0  0  0  0
    3.5200  -48.6424  -16.7294 C   0  0  0  0  0  0  0  0  0  0  0  0
    1.6750  -50.1077  -13.8497 C   0  0  0  0  0  0  0  0  0  0  0  0
    1.2471  -50.2416  -12.7811 N   0  0  0  0  0  0  0  0  0  0  0  0
    5.8322  -50.8411  -21.7752 C   0  0  0  0  0  0  0  0  0  0  0  0
    7.6418  -49.4948  -20.6114 C   0  0  0  0  0  0  0  0  0  0  0  0
    7.2531  -50.4346  -21.6905 C   0  0  0  0  0  0  0  0  0  0  0  0
    7.7764  -49.9980  -23.0693 C   0  0  0  0  0  0  0  0  0  0  0  0
    2.3445  -51.8914  -24.6601 C   0  0  0  0  0  0  0  0  0  0  0  0
    2.9402  -52.9326  -24.1977 O   0  0  0  0  0  0  0  0  0  0  0  0
    1.0170  -52.1018  -25.1126 N   0  0  0  0  0  0  0  0  0  0  0  0
    0.4237  -51.3108  -25.4845 H   0  0  0  0  0  0  0  0  0  0  0  0
    0.3858  -53.4130  -25.0819 C   0  0  0  0  0  0  0  0  0  0  0  0
   -0.0199  -53.7543  -26.4546 C   0  0  0  0  0  0  0  0  0  0  0  0
    0.8399  -54.4914  -27.2688 O   0  0  0  0  0  0  0  0  0  0  0  0
   -1.1205  -53.4235  -26.9773 O   0  0  0  0  0  0  0  0  0  0  0  0
    1.1296  -54.1862  -28.2017 H   0  0  0  0  0  0  0  0  0  0  0  0
   -0.8385  -53.3783  -24.1926 C   0  0  0  0  0  0  0  0  0  0  0  0
   -0.5297  -53.2455  -22.7544 C   0  0  0  0  0  0  0  0  0  0  0  0
   -0.3330  -54.3271  -21.9363 C   0  0  0  0  0  0  0  0  0  0  0  0
   -0.0462  -54.2263  -20.5835 C   0  0  0  0  0  0  0  0  0  0  0  0
    0.0390  -52.9654  -20.0770 C   0  0  0  0  0  0  0  0  0  0  0  0
   -0.1439  -51.8205  -20.8355 C   0  0  0  0  0  0  0  0  0  0  0  0
   -0.4303  -51.9759  -22.1829 C   0  0  0  0  0  0  0  0  0  0  0  0
    3.8326  -50.4732  -26.0017 C   0  0  0  0  0  0  0  0  0  0  0  0
    3.7481  -49.1283  -26.5797 C   0  0  0  0  0  0  0  0  0  0  0  0
    3.6255  -48.0054  -25.7744 O   0  0  0  0  0  0  0  0  0  0  0  0
    3.7787  -48.9261  -27.8158 O   0  0  0  0  0  0  0  0  0  0  0  0
    3.5891  -47.0552  -26.1434 H   0  0  0  0  0  0  0  0  0  0  0  0
 20 21  1  0  0  0
 21 22  1  0  0  0
 21 19  1  0  0  0
 19  6  1  0  0  0
  6  7  1  0  0  0
  7  8  1  0  0  0
  8  9  2  0  0  0
  8 11  1  0  0  0
 11 12  2  0  0  0
 12 13  1  0  0  0
 13 14  2  0  0  0
 14 15  1  0  0  0
 15 16  2  0  0  0
 14 17  1  0  0  0
 17 18  3  0  0  0
  6  2  1  0  0  0
  2  3  2  0  0  0
  2  4  1  0  0  0
  4  1  1  0  0  0
  1 39  1  0  0  0
 39 40  1  0  0  0
 40 41  1  0  0  0
 40 42  2  0  0  0
  1 23  1  0  0  0
 23 24  2  0  0  0
 23 25  1  0  0  0
 25 27  1  0  0  0
 27 32  1  0  0  0
 32 33  1  0  0  0
 33 34  2  0  0  0
 34 35  1  0  0  0
 35 36  2  0  0  0
 36 37  1  0  0  0
 37 38  2  0  0  0
 27 28  1  0  0  0
 28 29  1  0  0  0
 28 30  2  0  0  0
 16 11  1  0  0  0
 38 33  1  0  0  0
  7 10  1  0  0  0
  4  5  1  0  0  0
 41 43  1  0  0  0
 25 26  1  0  0  0
 29 31  1  0  0  0
M  END
> <minimizedAffinity>
-6.45569

> <CNNscore>
0.0866655409

> <CNNaffinity>
5.8465623856

> <CNN_VS>
0.5066955090

> <CNNaffinity_variance>
0.2542862892

$$$$
[H]OC(=O)C([H])([H])[C@@]([H])(C(=O)N([H])[C@]([H])(C(=O)O[H])C([H])([H])c1c([H])c([H])c([H])c([H])c1[H])N([H])C(=O)[C@@]([H])(N([H])C(=O)c1c([H])c([H])c(C#N)c([H])c1[H])C([H])([H])C([H])(C([H])([H])[H])C([H])([H])[H]


 43 44  0  0  0  0  0  0  0  0999 V2000
    3.7489  -46.8964  -18.0865 C   0  0  0  0  0  0  0  0  0  0  0  0
    3.2246  -49.2937  -17.5290 C   0  0  0  0  0  0  0  0  0  0  0  0
    4.1806  -49.7801  -18.1561 O   0  0  0  0  0  0  0  0  0  0  0  0
    2.9394  -47.9143  -17.4419 N   0  0  0  0  0  0  0  0  0  0  0  0
    2.1156  -47.5980  -16.8995 H   0  0  0  0  0  0  0  0  0  0  0  0
    2.2976  -50.2453  -16.8088 C   0  0  0  0  0  0  0  0  0  0  0  0
    1.8016  -51.1768  -17.8044 N   0  0  0  0  0  0  0  0  0  0  0  0
    1.0913  -50.7443  -18.9520 C   0  0  0  0  0  0  0  0  0  0  0  0
    0.8966  -49.5020  -19.0624 O   0  0  0  0  0  0  0  0  0  0  0  0
    1.9775  -52.1887  -17.6663 H   0  0  0  0  0  0  0  0  0  0  0  0
    0.5739  -51.6005  -20.0037 C   0  0  0  0  0  0  0  0  0  0  0  0
   -0.2230  -51.1696  -21.0414 C   0  0  0  0  0  0  0  0  0  0  0  0
   -0.6863  -52.0428  -22.0213 C   0  0  0  0  0  0  0  0  0  0  0  0
   -0.3667  -53.3744  -21.9898 C   0  0  0  0  0  0  0  0  0  0  0  0
    0.4333  -53.8369  -20.9559 C   0  0  0  0  0  0  0  0  0  0  0  0
    0.8846  -52.9609  -19.9957 C   0  0  0  0  0  0  0  0  0  0  0  0
   -0.8530  -54.3012  -23.0003 C   0  0  0  0  0  0  0  0  0  0  0  0
   -1.2460  -55.0277  -23.8131 N   0  0  0  0  0  0  0  0  0  0  0  0
    3.1478  -50.9140  -15.7870 C   0  0  0  0  0  0  0  0  0  0  0  0
    3.8711  -51.1038  -13.3617 C   0  0  0  0  0  0  0  0  0  0  0  0
    3.2887  -50.2868  -14.4537 C   0  0  0  0  0  0  0  0  0  0  0  0
    1.9799  -49.5942  -14.0378 C   0  0  0  0  0  0  0  0  0  0  0  0
    3.9583  -47.1179  -19.5092 C   0  0  0  0  0  0  0  0  0  0  0  0
    5.1488  -47.1959  -19.9880 O   0  0  0  0  0  0  0  0  0  0  0  0
    2.9121  -47.2641  -20.4554 N   0  0  0  0  0  0  0  0  0  0  0  0
    1.8955  -47.2468  -20.1686 H   0  0  0  0  0  0  0  0  0  0  0  0
    3.1715  -47.4593  -21.8744 C   0  0  0  0  0  0  0  0  0  0  0  0
    3.1486  -46.1402  -22.5261 C   0  0  0  0  0  0  0  0  0  0  0  0
    3.9780  -45.1210  -22.0582 O   0  0  0  0  0  0  0  0  0  0  0  0
    2.4141  -45.8415  -23.5086 O   0  0  0  0  0  0  0  0  0  0  0  0
    3.6345  -44.1938  -21.7941 H   0  0  0  0  0  0  0  0  0  0  0  0
    2.0975  -48.3359  -22.4819 C   0  0  0  0  0  0  0  0  0  0  0  0
    2.5399  -49.7171  -22.7612 C   0  0  0  0  0  0  0  0  0  0  0  0
    2.0793  -50.4404  -23.8301 C   0  0  0  0  0  0  0  0  0  0  0  0
    2.4773  -51.7388  -24.1092 C   0  0  0  0  0  0  0  0  0  0  0  0
    3.3792  -52.2910  -23.2517 C   0  0  0  0  0  0  0  0  0  0  0  0
    3.8952  -51.6279  -22.1502 C   0  0  0  0  0  0  0  0  0  0  0  0
    3.4636  -50.3318  -21.9143 C   0  0  0  0  0  0  0  0  0  0  0  0
    5.0992  -46.9428  -17.3428 C   0  0  0  0  0  0  0  0  0  0  0  0
    5.0083  -46.4113  -15.9793 C   0  0  0  0  0  0  0  0  0  0  0  0
    5.3385  -45.0939  -15.6969 O   0  0  0  0  0  0  0  0  0  0  0  0
    4.6351  -47.1116  -15.0096 O   0  0  0  0  0  0  0  0  0  0  0  0
    5.2628  -44.6870  -14.7647 H   0  0  0  0  0  0  0  0  0  0  0  0
 20 21  1  0  0  0
 21 22  1  0  0  0
 21 19  1  0  0  0
 19  6  1  0  0  0
  6  7  1  0  0  0
  7  8  1  0  0  0
  8  9  2  0  0  0
  8 11  1  0  0  0
 11 12  2  0  0  0
 12 13  1  0  0  0
 13 14  2  0  0  0
 14 15  1  0  0  0
 15 16  2  0  0  0
 14 17  1  0  0  0
 17 18  3  0  0  0
  6  2  1  0  0  0
  2  3  2  0  0  0
  2  4  1  0  0  0
  4  1  1  0  0  0
  1 39  1  0  0  0
 39 40  1  0  0  0
 40 41  1  0  0  0
 40 42  2  0  0  0
  1 23  1  0  0  0
 23 24  2  0  0  0
 23 25  1  0  0  0
 25 27  1  0  0  0
 27 32  1  0  0  0
 32 33  1  0  0  0
 33 34  2  0  0  0
 34 35  1  0  0  0
 35 36  2  0  0  0
 36 37  1  0  0  0
 37 38  2  0  0  0
 27 28  1  0  0  0
 28 29  1  0  0  0
 28 30  2  0  0  0
 16 11  1  0  0  0
 38 33  1  0  0  0
  7 10  1  0  0  0
  4  5  1  0  0  0
 41 43  1  0  0  0
 25 26  1  0  0  0
 29 31  1  0  0  0
M  END
> <minimizedAffinity>
-5.50672

> <CNNscore>
0.0855609924

> <CNNaffinity>
5.6012930870

> <CNN_VS>
0.4792521894

> <CNNaffinity_variance>
0.4339145124

$$$$
[H]c1c([H])c([H])c(C([H])([H])N2C([H])([H])c3c(n([H])c(=O)n4c([H])c(-c5c([H])c([H])c(OC([H])([H])[H])c([H])c5[H])nc34)C([H])([H])C2([H])[H])c([H])c1[H]


 30 34  0  0  0  0  0  0  0  0999 V2000
   -0.2239  -52.4580  -20.4065 C   0  0  0  0  0  0  0  0  0  0  0  0
   -0.8899  -53.5948  -20.8158 C   0  0  0  0  0  0  0  0  0  0  0  0
   -0.7212  -53.7251  -22.1679 N   0  0  0  0  0  0  0  0  0  0  0  0
    0.0308  -52.6930  -22.5821 C   0  0  0  0  0  0  0  0  0  0  0  0
    0.3200  -51.9402  -21.5023 N   0  0  0  0  0  0  0  0  0  0  0  0
    0.3304  -52.6234  -23.9362 C   0  0  0  0  0  0  0  0  0  0  0  0
    1.1630  -51.4753  -24.3697 C   0  0  0  0  0  0  0  0  0  0  0  0
    1.0887  -51.1658  -25.7600 N   0  0  0  0  0  0  0  0  0  0  0  0
    0.1949  -51.9415  -26.5241 C   0  0  0  0  0  0  0  0  0  0  0  0
    0.2401  -53.4205  -26.2363 C   0  0  0  0  0  0  0  0  0  0  0  0
   -0.1320  -53.5818  -24.8089 C   0  0  0  0  0  0  0  0  0  0  0  0
   -0.8702  -54.5770  -24.3399 N   0  0  0  0  0  0  0  0  0  0  0  0
   -1.1667  -54.6555  -23.0334 C   0  0  0  0  0  0  0  0  0  0  0  0
   -1.8633  -55.5884  -22.5682 O   0  0  0  0  0  0  0  0  0  0  0  0
   -1.2124  -55.2954  -25.0177 H   0  0  0  0  0  0  0  0  0  0  0  0
   -0.0832  -51.0735  -16.3599 C   0  0  0  0  0  0  0  0  0  0  0  0
    0.6111  -50.4295  -17.3714 C   0  0  0  0  0  0  0  0  0  0  0  0
    0.5685  -50.8722  -18.6765 C   0  0  0  0  0  0  0  0  0  0  0  0
   -0.1628  -51.9668  -19.0225 C   0  0  0  0  0  0  0  0  0  0  0  0
   -0.8550  -52.6129  -18.0268 C   0  0  0  0  0  0  0  0  0  0  0  0
   -0.8262  -52.1843  -16.7061 C   0  0  0  0  0  0  0  0  0  0  0  0
   -0.7850  -51.3192  -14.0173 C   0  0  0  0  0  0  0  0  0  0  0  0
   -0.0772  -50.6786  -15.0481 O   0  0  0  0  0  0  0  0  0  0  0  0
    2.4122  -50.9922  -26.2670 C   0  0  0  0  0  0  0  0  0  0  0  0
    3.4921  -51.1474  -25.2858 C   0  0  0  0  0  0  0  0  0  0  0  0
    3.9945  -52.3806  -24.9510 C   0  0  0  0  0  0  0  0  0  0  0  0
    5.0295  -52.5126  -24.0164 C   0  0  0  0  0  0  0  0  0  0  0  0
    5.5493  -51.4046  -23.4275 C   0  0  0  0  0  0  0  0  0  0  0  0
    5.0495  -50.1643  -23.7592 C   0  0  0  0  0  0  0  0  0  0  0  0
    4.0325  -50.0379  -24.6779 C   0  0  0  0  0  0  0  0  0  0  0  0
 22 23  1  0  0  0
 23 16  1  0  0  0
 16 17  2  0  0  0
 17 18  1  0  0  0
 18 19  2  0  0  0
 19 20  1  0  0  0
 20 21  2  0  0  0
 19  1  1  0  0  0
  1  2  2  0  0  0
  2  3  1  0  0  0
  3  4  1  0  0  0
  4  5  2  0  0  0
  4  6  1  0  0  0
  6  7  1  0  0  0
  7  8  1  0  0  0
  8 24  1  0  0  0
 24 25  1  0  0  0
 25 26  2  0  0  0
 26 27  1  0  0  0
 27 28  2  0  0  0
 28 29  1  0  0  0
 29 30  2  0  0  0
  8  9  1  0  0  0
  9 10  1  0  0  0
 10 11  1  0  0  0
 11 12  1  0  0  0
 12 13  1  0  0  0
 13 14  2  0  0  0
 21 16  1  0  0  0
  5  1  1  0  0  0
 11  6  2  0  0  0
 13  3  1  0  0  0
 30 25  1  0  0  0
 12 15  1  0  0  0
M  END
> <minimizedAffinity>
-8.52587

> <CNNscore>
0.8383444548

> <CNNaffinity>
7.1758551598

> <CNN_VS>
6.0158381462

> <CNNaffinity_variance>
0.1349611431

$$$$
[H]c1c([H])c([H])c(C([H])([H])N2C([H])([H])c3c(n([H])c(=O)n4c([H])c(-c5c([H])c([H])c(OC([H])([H])[H])c([H])c5[H])nc34)C([H])([H])C2([H])[H])c([H])c1[H]


 30 34  0  0  0  0  0  0  0  0999 V2000
   -0.2322  -52.4423  -20.3813 C   0  0  0  0  0  0  0  0  0  0  0  0
   -0.9052  -53.5735  -20.7948 C   0  0  0  0  0  0  0  0  0  0  0  0
   -0.7277  -53.7062  -22.1455 N   0  0  0  0  0  0  0  0  0  0  0  0
    0.0366  -52.6812  -22.5548 C   0  0  0  0  0  0  0  0  0  0  0  0
    0.3245  -51.9302  -21.4733 N   0  0  0  0  0  0  0  0  0  0  0  0
    0.3468  -52.6154  -23.9067 C   0  0  0  0  0  0  0  0  0  0  0  0
    1.1928  -51.4751  -24.3348 C   0  0  0  0  0  0  0  0  0  0  0  0
    1.1316  -51.1660  -25.7258 N   0  0  0  0  0  0  0  0  0  0  0  0
    0.2366  -51.9342  -26.4960 C   0  0  0  0  0  0  0  0  0  0  0  0
    0.2664  -53.4134  -26.2068 C   0  0  0  0  0  0  0  0  0  0  0  0
   -0.1176  -53.5702  -24.7821 C   0  0  0  0  0  0  0  0  0  0  0  0
   -0.8682  -54.5584  -24.3179 N   0  0  0  0  0  0  0  0  0  0  0  0
   -1.1751  -54.6333  -23.0136 C   0  0  0  0  0  0  0  0  0  0  0  0
   -1.8835  -55.5595  -22.5529 O   0  0  0  0  0  0  0  0  0  0  0  0
   -1.2118  -55.2742  -24.9977 H   0  0  0  0  0  0  0  0  0  0  0  0
   -0.0351  -50.9648  -16.3701 C   0  0  0  0  0  0  0  0  0  0  0  0
   -0.7625  -52.0999  -16.6901 C   0  0  0  0  0  0  0  0  0  0  0  0
   -0.8287  -52.5793  -17.9811 C   0  0  0  0  0  0  0  0  0  0  0  0
   -0.1769  -51.9506  -18.9972 C   0  0  0  0  0  0  0  0  0  0  0  0
    0.5474  -50.8240  -18.6906 C   0  0  0  0  0  0  0  0  0  0  0  0
    0.6276  -50.3237  -17.3974 C   0  0  0  0  0  0  0  0  0  0  0  0
    1.1316  -49.6496  -14.6526 C   0  0  0  0  0  0  0  0  0  0  0  0
    0.0656  -50.4442  -15.1069 O   0  0  0  0  0  0  0  0  0  0  0  0
    2.4603  -51.0046  -26.2231 C   0  0  0  0  0  0  0  0  0  0  0  0
    3.5305  -51.1469  -25.2294 C   0  0  0  0  0  0  0  0  0  0  0  0
    4.0148  -52.3769  -24.8581 C   0  0  0  0  0  0  0  0  0  0  0  0
    5.0408  -52.4968  -23.9119 C   0  0  0  0  0  0  0  0  0  0  0  0
    5.5697  -51.3800  -23.3483 C   0  0  0  0  0  0  0  0  0  0  0  0
    5.0880  -50.1429  -23.7166 C   0  0  0  0  0  0  0  0  0  0  0  0
    4.0799  -50.0285  -24.6466 C   0  0  0  0  0  0  0  0  0  0  0  0
 22 23  1  0  0  0
 23 16  1  0  0  0
 16 17  2  0  0  0
 17 18  1  0  0  0
 18 19  2  0  0  0
 19 20  1  0  0  0
 20 21  2  0  0  0
 19  1  1  0  0  0
  1  2  2  0  0  0
  2  3  1  0  0  0
  3  4  1  0  0  0
  4  5  2  0  0  0
  4  6  1  0  0  0
  6  7  1  0  0  0
  7  8  1  0  0  0
  8 24  1  0  0  0
 24 25  1  0  0  0
 25 26  2  0  0  0
 26 27  1  0  0  0
 27 28  2  0  0  0
 28 29  1  0  0  0
 29 30  2  0  0  0
  8  9  1  0  0  0
  9 10  1  0  0  0
 10 11  1  0  0  0
 11 12  1  0  0  0
 12 13  1  0  0  0
 13 14  2  0  0  0
 21 16  1  0  0  0
  5  1  1  0  0  0
 11  6  2  0  0  0
 13  3  1  0  0  0
 30 25  1  0  0  0
 12 15  1  0  0  0
M  END
> <minimizedAffinity>
-8.49989

> <CNNscore>
0.8180292249

> <CNNaffinity>
7.1451673508

> <CNN_VS>
5.8449559212

> <CNNaffinity_variance>
0.1600632221

$$$$
[H]c1c([H])c([H])c(C([H])([H])N2C([H])([H])c3c(n([H])c(=O)n4c([H])c(-c5c([H])c([H])c(OC([H])([H])[H])c([H])c5[H])nc34)C([H])([H])C2([H])[H])c([H])c1[H]


 30 34  0  0  0  0  0  0  0  0999 V2000
   -0.1278  -52.3121  -20.3517 C   0  0  0  0  0  0  0  0  0  0  0  0
   -0.8511  -53.4218  -20.7377 C   0  0  0  0  0  0  0  0  0  0  0  0
   -0.6769  -53.5981  -22.0838 N   0  0  0  0  0  0  0  0  0  0  0  0
    0.1345  -52.6202  -22.5173 C   0  0  0  0  0  0  0  0  0  0  0  0
    0.4541  -51.8550  -21.4549 N   0  0  0  0  0  0  0  0  0  0  0  0
    0.4504  -52.6043  -23.8693 C   0  0  0  0  0  0  0  0  0  0  0  0
    1.3488  -51.5156  -24.3242 C   0  0  0  0  0  0  0  0  0  0  0  0
    1.3049  -51.2408  -25.7232 N   0  0  0  0  0  0  0  0  0  0  0  0
    0.3774  -51.9872  -26.4759 C   0  0  0  0  0  0  0  0  0  0  0  0
    0.3387  -53.4581  -26.1481 C   0  0  0  0  0  0  0  0  0  0  0  0
   -0.0553  -53.5596  -24.7210 C   0  0  0  0  0  0  0  0  0  0  0  0
   -0.8514  -54.4998  -24.2336 N   0  0  0  0  0  0  0  0  0  0  0  0
   -1.1643  -54.5262  -22.9289 C   0  0  0  0  0  0  0  0  0  0  0  0
   -1.9154  -55.4066  -22.4465 O   0  0  0  0  0  0  0  0  0  0  0  0
   -1.2259  -55.2169  -24.8957 H   0  0  0  0  0  0  0  0  0  0  0  0
    0.0540  -50.8300  -16.3414 C   0  0  0  0  0  0  0  0  0  0  0  0
    0.7103  -50.1914  -17.3813 C   0  0  0  0  0  0  0  0  0  0  0  0
    0.6544  -50.6655  -18.6748 C   0  0  0  0  0  0  0  0  0  0  0  0
   -0.0531  -51.7872  -18.9808 C   0  0  0  0  0  0  0  0  0  0  0  0
   -0.7078  -52.4282  -17.9568 C   0  0  0  0  0  0  0  0  0  0  0  0
   -0.6649  -51.9682  -16.6471 C   0  0  0  0  0  0  0  0  0  0  0  0
    0.5712  -51.1557  -13.9609 C   0  0  0  0  0  0  0  0  0  0  0  0
    0.0747  -50.4045  -15.0394 O   0  0  0  0  0  0  0  0  0  0  0  0
    2.6407  -51.1535  -26.2199 C   0  0  0  0  0  0  0  0  0  0  0  0
    3.4077  -49.9849  -25.7736 C   0  0  0  0  0  0  0  0  0  0  0  0
    4.4803  -50.1040  -24.9246 C   0  0  0  0  0  0  0  0  0  0  0  0
    5.2064  -48.9796  -24.5115 C   0  0  0  0  0  0  0  0  0  0  0  0
    4.8477  -47.7471  -24.9551 C   0  0  0  0  0  0  0  0  0  0  0  0
    3.7724  -47.6209  -25.8071 C   0  0  0  0  0  0  0  0  0  0  0  0
    3.0610  -48.7277  -26.2112 C   0  0  0  0  0  0  0  0  0  0  0  0
 22 23  1  0  0  0
 23 16  1  0  0  0
 16 17  2  0  0  0
 17 18  1  0  0  0
 18 19  2  0  0  0
 19 20  1  0  0  0
 20 21  2  0  0  0
 19  1  1  0  0  0
  1  2  2  0  0  0
  2  3  1  0  0  0
  3  4  1  0  0  0
  4  5  2  0  0  0
  4  6  1  0  0  0
  6  7  1  0  0  0
  7  8  1  0  0  0
  8 24  1  0  0  0
 24 25  1  0  0  0
 25 26  2  0  0  0
 26 27  1  0  0  0
 27 28  2  0  0  0
 28 29  1  0  0  0
 29 30  2  0  0  0
  8  9  1  0  0  0
  9 10  1  0  0  0
 10 11  1  0  0  0
 11 12  1  0  0  0
 12 13  1  0  0  0
 13 14  2  0  0  0
 21 16  1  0  0  0
  5  1  1  0  0  0
 11  6  2  0  0  0
 13  3  1  0  0  0
 30 25  1  0  0  0
 12 15  1  0  0  0
M  END
> <minimizedAffinity>
-8.04073

> <CNNscore>
0.7454520464

> <CNNaffinity>
7.0668349266

> <CNN_VS>
5.2679867744

> <CNNaffinity_variance>
0.2735652328

$$$$
[H]c1c([H])c([H])c(C([H])([H])N2C([H])([H])c3c(n([H])c(=O)n4c([H])c(-c5c([H])c([H])c(OC([H])([H])[H])c([H])c5[H])nc34)C([H])([H])C2([H])[H])c([H])c1[H]


 30 34  0  0  0  0  0  0  0  0999 V2000
   -0.0747  -52.2876  -19.9293 C   0  0  0  0  0  0  0  0  0  0  0  0
   -0.8931  -53.3014  -20.3830 C   0  0  0  0  0  0  0  0  0  0  0  0
   -0.6139  -53.5160  -21.7058 N   0  0  0  0  0  0  0  0  0  0  0  0
    0.3537  -52.6549  -22.0589 C   0  0  0  0  0  0  0  0  0  0  0  0
    0.6644  -51.9226  -20.9710 N   0  0  0  0  0  0  0  0  0  0  0  0
    0.7978  -52.6968  -23.3738 C   0  0  0  0  0  0  0  0  0  0  0  0
    1.8675  -51.7371  -23.7399 C   0  0  0  0  0  0  0  0  0  0  0  0
    1.9941  -51.4772  -25.1367 N   0  0  0  0  0  0  0  0  0  0  0  0
    1.0557  -52.1096  -25.9756 C   0  0  0  0  0  0  0  0  0  0  0  0
    0.7981  -53.5593  -25.6520 C   0  0  0  0  0  0  0  0  0  0  0  0
    0.2587  -53.5912  -24.2700 C   0  0  0  0  0  0  0  0  0  0  0  0
   -0.6942  -54.4163  -23.8617 N   0  0  0  0  0  0  0  0  0  0  0  0
   -1.1322  -54.3857  -22.5936 C   0  0  0  0  0  0  0  0  0  0  0  0
   -2.0325  -55.1572  -22.1860 O   0  0  0  0  0  0  0  0  0  0  0  0
   -1.0916  -55.0886  -24.5566 H   0  0  0  0  0  0  0  0  0  0  0  0
   -0.0867  -50.7930  -15.9196 C   0  0  0  0  0  0  0  0  0  0  0  0
    0.6303  -50.1654  -16.9255 C   0  0  0  0  0  0  0  0  0  0  0  0
    0.6370  -50.6436  -18.2187 C   0  0  0  0  0  0  0  0  0  0  0  0
   -0.0661  -51.7585  -18.5580 C   0  0  0  0  0  0  0  0  0  0  0  0
   -0.7805  -52.3886  -17.5678 C   0  0  0  0  0  0  0  0  0  0  0  0
   -0.8012  -51.9243  -16.2590 C   0  0  0  0  0  0  0  0  0  0  0  0
   -1.1093  -50.7385  -13.6853 C   0  0  0  0  0  0  0  0  0  0  0  0
   -0.1294  -50.3630  -14.6196 O   0  0  0  0  0  0  0  0  0  0  0  0
    3.3717  -51.5668  -25.5013 C   0  0  0  0  0  0  0  0  0  0  0  0
    4.2842  -50.6986  -24.7484 C   0  0  0  0  0  0  0  0  0  0  0  0
    4.1153  -49.3367  -24.7030 C   0  0  0  0  0  0  0  0  0  0  0  0
    4.9914  -48.5212  -23.9755 C   0  0  0  0  0  0  0  0  0  0  0  0
    6.0284  -49.0819  -23.3009 C   0  0  0  0  0  0  0  0  0  0  0  0
    6.2033  -50.4478  -23.3425 C   0  0  0  0  0  0  0  0  0  0  0  0
    5.3406  -51.2464  -24.0583 C   0  0  0  0  0  0  0  0  0  0  0  0
 22 23  1  0  0  0
 23 16  1  0  0  0
 16 17  2  0  0  0
 17 18  1  0  0  0
 18 19  2  0  0  0
 19 20  1  0  0  0
 20 21  2  0  0  0
 19  1  1  0  0  0
  1  2  2  0  0  0
  2  3  1  0  0  0
  3  4  1  0  0  0
  4  5  2  0  0  0
  4  6  1  0  0  0
  6  7  1  0  0  0
  7  8  1  0  0  0
  8 24  1  0  0  0
 24 25  1  0  0  0
 25 26  2  0  0  0
 26 27  1  0  0  0
 27 28  2  0  0  0
 28 29  1  0  0  0
 29 30  2  0  0  0
  8  9  1  0  0  0
  9 10  1  0  0  0
 10 11  1  0  0  0
 11 12  1  0  0  0
 12 13  1  0  0  0
 13 14  2  0  0  0
 21 16  1  0  0  0
  5  1  1  0  0  0
 11  6  2  0  0  0
 13  3  1  0  0  0
 30 25  1  0  0  0
 12 15  1  0  0  0
M  END
> <minimizedAffinity>
-7.57505

> <CNNscore>
0.7252191901

> <CNNaffinity>
6.9158616066

> <CNN_VS>
5.0155153275

> <CNNaffinity_variance>
0.1977381706

$$$$
[H]c1c([H])c([H])c(C([H])([H])N2C([H])([H])c3c(n([H])c(=O)n4c([H])c(-c5c([H])c([H])c(OC([H])([H])[H])c([H])c5[H])nc34)C([H])([H])C2([H])[H])c([H])c1[H]


 30 34  0  0  0  0  0  0  0  0999 V2000
    0.0863  -52.3952  -23.3008 C   0  0  0  0  0  0  0  0  0  0  0  0
   -0.7022  -53.2276  -22.5334 C   0  0  0  0  0  0  0  0  0  0  0  0
   -0.5368  -52.8807  -21.2196 N   0  0  0  0  0  0  0  0  0  0  0  0
    0.3330  -51.8589  -21.1784 C   0  0  0  0  0  0  0  0  0  0  0  0
    0.6966  -51.5818  -22.4462 N   0  0  0  0  0  0  0  0  0  0  0  0
    0.6514  -51.3407  -19.9301 C   0  0  0  0  0  0  0  0  0  0  0  0
    1.6133  -50.2122  -19.9099 C   0  0  0  0  0  0  0  0  0  0  0  0
    2.2620  -49.9933  -18.6587 N   0  0  0  0  0  0  0  0  0  0  0  0
    1.9570  -50.9067  -17.6306 C   0  0  0  0  0  0  0  0  0  0  0  0
    0.4933  -51.2434  -17.5012 C   0  0  0  0  0  0  0  0  0  0  0  0
    0.0901  -51.8636  -18.7876 C   0  0  0  0  0  0  0  0  0  0  0  0
   -0.7622  -52.8725  -18.8927 N   0  0  0  0  0  0  0  0  0  0  0  0
   -1.0782  -53.3822  -20.0933 C   0  0  0  0  0  0  0  0  0  0  0  0
   -1.8822  -54.3364  -20.2159 O   0  0  0  0  0  0  0  0  0  0  0  0
   -1.1783  -53.2564  -18.0141 H   0  0  0  0  0  0  0  0  0  0  0  0
    0.4488  -52.5538  -27.5617 C   0  0  0  0  0  0  0  0  0  0  0  0
   -0.7537  -52.2435  -26.9471 C   0  0  0  0  0  0  0  0  0  0  0  0
   -0.8749  -52.1913  -25.5746 C   0  0  0  0  0  0  0  0  0  0  0  0
    0.1904  -52.4446  -24.7662 C   0  0  0  0  0  0  0  0  0  0  0  0
    1.3876  -52.7534  -25.3657 C   0  0  0  0  0  0  0  0  0  0  0  0
    1.5320  -52.8115  -26.7458 C   0  0  0  0  0  0  0  0  0  0  0  0
   -0.3977  -52.8665  -29.8478 C   0  0  0  0  0  0  0  0  0  0  0  0
    0.6268  -52.6199  -28.9185 O   0  0  0  0  0  0  0  0  0  0  0  0
    2.2040  -48.6017  -18.3443 C   0  0  0  0  0  0  0  0  0  0  0  0
    3.3944  -47.8213  -18.7011 C   0  0  0  0  0  0  0  0  0  0  0  0
    4.5851  -47.9711  -18.0340 C   0  0  0  0  0  0  0  0  0  0  0  0
    5.7147  -47.2230  -18.3897 C   0  0  0  0  0  0  0  0  0  0  0  0
    5.6366  -46.3319  -19.4117 C   0  0  0  0  0  0  0  0  0  0  0  0
    4.4446  -46.1769  -20.0850 C   0  0  0  0  0  0  0  0  0  0  0  0
    3.3366  -46.9136  -19.7331 C   0  0  0  0  0  0  0  0  0  0  0  0
 22 23  1  0  0  0
 23 16  1  0  0  0
 16 17  2  0  0  0
 17 18  1  0  0  0
 18 19  2  0  0  0
 19 20  1  0  0  0
 20 21  2  0  0  0
 19  1  1  0  0  0
  1  2  2  0  0  0
  2  3  1  0  0  0
  3  4  1  0  0  0
  4  5  2  0  0  0
  4  6  1  0  0  0
  6  7  1  0  0  0
  7  8  1  0  0  0
  8 24  1  0  0  0
 24 25  1  0  0  0
 25 26  2  0  0  0
 26 27  1  0  0  0
 27 28  2  0  0  0
 28 29  1  0  0  0
 29 30  2  0  0  0
  8  9  1  0  0  0
  9 10  1  0  0  0
 10 11  1  0  0  0
 11 12  1  0  0  0
 12 13  1  0  0  0
 13 14  2  0  0  0
 21 16  1  0  0  0
  5  1  1  0  0  0
 11  6  2  0  0  0
 13  3  1  0  0  0
 30 25  1  0  0  0
 12 15  1  0  0  0
M  END
> <minimizedAffinity>
-7.76524

> <CNNscore>
0.6477685571

> <CNNaffinity>
6.8011388779

> <CNN_VS>
4.4055638313

> <CNNaffinity_variance>
0.5178118348

$$$$
[H]c1c([H])c([H])c(C([H])([H])N2C([H])([H])c3c(n([H])c(=O)n4c([H])c(-c5c([H])c([H])c(OC([H])([H])[H])c([H])c5[H])nc34)C([H])([H])C2([H])[H])c([H])c1[H]


 30 34  0  0  0  0  0  0  0  0999 V2000
    0.9300  -51.5610  -22.6390 C   0  0  0  0  0  0  0  0  0  0  0  0
    0.1382  -52.6801  -22.4832 C   0  0  0  0  0  0  0  0  0  0  0  0
   -0.2599  -52.7427  -21.1751 N   0  0  0  0  0  0  0  0  0  0  0  0
    0.2738  -51.6874  -20.5397 C   0  0  0  0  0  0  0  0  0  0  0  0
    0.9887  -50.9870  -21.4425 N   0  0  0  0  0  0  0  0  0  0  0  0
   -0.0025  -51.5497  -19.1859 C   0  0  0  0  0  0  0  0  0  0  0  0
    0.5972  -50.3760  -18.5061 C   0  0  0  0  0  0  0  0  0  0  0  0
    0.6886  -50.4814  -17.0866 N   0  0  0  0  0  0  0  0  0  0  0  0
    0.2607  -51.6996  -16.5235 C   0  0  0  0  0  0  0  0  0  0  0  0
   -1.0314  -52.2343  -17.0867 C   0  0  0  0  0  0  0  0  0  0  0  0
   -0.7943  -52.4665  -18.5330 C   0  0  0  0  0  0  0  0  0  0  0  0
   -1.2926  -53.4876  -19.2145 N   0  0  0  0  0  0  0  0  0  0  0  0
   -1.0329  -53.6320  -20.5232 C   0  0  0  0  0  0  0  0  0  0  0  0
   -1.4940  -54.5902  -21.1872 O   0  0  0  0  0  0  0  0  0  0  0  0
   -1.8917  -54.1737  -18.7017 H   0  0  0  0  0  0  0  0  0  0  0  0
    2.7879  -50.2895  -26.2781 C   0  0  0  0  0  0  0  0  0  0  0  0
    1.8190  -51.2801  -26.2659 C   0  0  0  0  0  0  0  0  0  0  0  0
    1.2179  -51.6927  -25.0957 C   0  0  0  0  0  0  0  0  0  0  0  0
    1.5564  -51.1382  -23.8997 C   0  0  0  0  0  0  0  0  0  0  0  0
    2.5163  -50.1550  -23.9007 C   0  0  0  0  0  0  0  0  0  0  0  0
    3.1345  -49.7242  -25.0674 C   0  0  0  0  0  0  0  0  0  0  0  0
    4.0724  -48.6028  -27.5214 C   0  0  0  0  0  0  0  0  0  0  0  0
    3.4176  -49.8408  -27.4090 O   0  0  0  0  0  0  0  0  0  0  0  0
    0.1992  -49.2749  -16.5003 C   0  0  0  0  0  0  0  0  0  0  0  0
    0.8598  -48.8612  -15.2571 C   0  0  0  0  0  0  0  0  0  0  0  0
    0.1495  -48.6064  -14.1099 C   0  0  0  0  0  0  0  0  0  0  0  0
    0.7947  -48.2175  -12.9290 C   0  0  0  0  0  0  0  0  0  0  0  0
    2.1466  -48.0884  -12.9123 C   0  0  0  0  0  0  0  0  0  0  0  0
    2.8650  -48.3426  -14.0601 C   0  0  0  0  0  0  0  0  0  0  0  0
    2.2281  -48.7246  -15.2189 C   0  0  0  0  0  0  0  0  0  0  0  0
 22 23  1  0  0  0
 23 16  1  0  0  0
 16 17  2  0  0  0
 17 18  1  0  0  0
 18 19  2  0  0  0
 19 20  1  0  0  0
 20 21  2  0  0  0
 19  1  1  0  0  0
  1  2  2  0  0  0
  2  3  1  0  0  0
  3  4  1  0  0  0
  4  5  2  0  0  0
  4  6  1  0  0  0
  6  7  1  0  0  0
  7  8  1  0  0  0
  8 24  1  0  0  0
 24 25  1  0  0  0
 25 26  2  0  0  0
 26 27  1  0  0  0
 27 28  2  0  0  0
 28 29  1  0  0  0
 29 30  2  0  0  0
  8  9  1  0  0  0
  9 10  1  0  0  0
 10 11  1  0  0  0
 11 12  1  0  0  0
 12 13  1  0  0  0
 13 14  2  0  0  0
 21 16  1  0  0  0
  5  1  1  0  0  0
 11  6  2  0  0  0
 13  3  1  0  0  0
 30 25  1  0  0  0
 12 15  1  0  0  0
M  END
> <minimizedAffinity>
-7.19110

> <CNNscore>
0.6343185306

> <CNNaffinity>
6.4534635544

> <CNN_VS>
4.0935516357

> <CNNaffinity_variance>
0.3980026543

$$$$
[H]c1c([H])c([H])c(C([H])([H])N2C([H])([H])c3c(n([H])c(=O)n4c([H])c(-c5c([H])c([H])c(OC([H])([H])[H])c([H])c5[H])nc34)C([H])([H])C2([H])[H])c([H])c1[H]


 30 34  0  0  0  0  0  0  0  0999 V2000
    0.1379  -52.4420  -23.2229 C   0  0  0  0  0  0  0  0  0  0  0  0
   -0.6878  -53.2770  -22.4988 C   0  0  0  0  0  0  0  0  0  0  0  0
   -0.5816  -52.9407  -21.1762 N   0  0  0  0  0  0  0  0  0  0  0  0
    0.2889  -51.9225  -21.0873 C   0  0  0  0  0  0  0  0  0  0  0  0
    0.7112  -51.6373  -22.3350 N   0  0  0  0  0  0  0  0  0  0  0  0
    0.5516  -51.4150  -19.8218 C   0  0  0  0  0  0  0  0  0  0  0  0
    1.5155  -50.2903  -19.7489 C   0  0  0  0  0  0  0  0  0  0  0  0
    2.1069  -50.0833  -18.4676 N   0  0  0  0  0  0  0  0  0  0  0  0
    1.7519  -51.0033  -17.4617 C   0  0  0  0  0  0  0  0  0  0  0  0
    0.2827  -51.3354  -17.4020 C   0  0  0  0  0  0  0  0  0  0  0  0
   -0.0632  -51.9443  -18.7103 C   0  0  0  0  0  0  0  0  0  0  0  0
   -0.9133  -52.9491  -18.8621 N   0  0  0  0  0  0  0  0  0  0  0  0
   -1.1757  -53.4486  -20.0797 C   0  0  0  0  0  0  0  0  0  0  0  0
   -1.9765  -54.3988  -20.2464 O   0  0  0  0  0  0  0  0  0  0  0  0
   -1.3706  -53.3381  -18.0064 H   0  0  0  0  0  0  0  0  0  0  0  0
    0.5782  -52.5348  -27.4784 C   0  0  0  0  0  0  0  0  0  0  0  0
    1.6129  -52.9035  -26.6339 C   0  0  0  0  0  0  0  0  0  0  0  0
    1.4754  -52.8751  -25.2623 C   0  0  0  0  0  0  0  0  0  0  0  0
    0.3089  -52.4807  -24.6823 C   0  0  0  0  0  0  0  0  0  0  0  0
   -0.7236  -52.1129  -25.5109 C   0  0  0  0  0  0  0  0  0  0  0  0
   -0.6068  -52.1339  -26.8946 C   0  0  0  0  0  0  0  0  0  0  0  0
   -0.4088  -52.8474  -29.7075 C   0  0  0  0  0  0  0  0  0  0  0  0
    0.6587  -52.5435  -28.8460 O   0  0  0  0  0  0  0  0  0  0  0  0
    2.0394  -48.6940  -18.1455 C   0  0  0  0  0  0  0  0  0  0  0  0
    2.3928  -48.3458  -16.7645 C   0  0  0  0  0  0  0  0  0  0  0  0
    3.6988  -48.2821  -16.3455 C   0  0  0  0  0  0  0  0  0  0  0  0
    4.0210  -47.9429  -15.0251 C   0  0  0  0  0  0  0  0  0  0  0  0
    3.0280  -47.6711  -14.1392 C   0  0  0  0  0  0  0  0  0  0  0  0
    1.7156  -47.7333  -14.5535 C   0  0  0  0  0  0  0  0  0  0  0  0
    1.4023  -48.0669  -15.8516 C   0  0  0  0  0  0  0  0  0  0  0  0
 22 23  1  0  0  0
 23 16  1  0  0  0
 16 17  2  0  0  0
 17 18  1  0  0  0
 18 19  2  0  0  0
 19 20  1  0  0  0
 20 21  2  0  0  0
 19  1  1  0  0  0
  1  2  2  0  0  0
  2  3  1  0  0  0
  3  4  1  0  0  0
  4  5  2  0  0  0
  4  6  1  0  0  0
  6  7  1  0  0  0
  7  8  1  0  0  0
  8 24  1  0  0  0
 24 25  1  0  0  0
 25 26  2  0  0  0
 26 27  1  0  0  0
 27 28  2  0  0  0
 28 29  1  0  0  0
 29 30  2  0  0  0
  8  9  1  0  0  0
  9 10  1  0  0  0
 10 11  1  0  0  0
 11 12  1  0  0  0
 12 13  1  0  0  0
 13 14  2  0  0  0
 21 16  1  0  0  0
  5  1  1  0  0  0
 11  6  2  0  0  0
 13  3  1  0  0  0
 30 25  1  0  0  0
 12 15  1  0  0  0
M  END
> <minimizedAffinity>
-7.79348

> <CNNscore>
0.6227348447

> <CNNaffinity>
6.5951142311

> <CNN_VS>
4.1070075035

> <CNNaffinity_variance>
0.4705801904

$$$$
[H]c1c([H])c([H])c(C([H])([H])N2C([H])([H])c3c(n([H])c(=O)n4c([H])c(-c5c([H])c([H])c(OC([H])([H])[H])c([H])c5[H])nc34)C([H])([H])C2([H])[H])c([H])c1[H]


 30 34  0  0  0  0  0  0  0  0999 V2000
    0.2790  -52.3726  -23.2742 C   0  0  0  0  0  0  0  0  0  0  0  0
   -0.5520  -53.1605  -22.5047 C   0  0  0  0  0  0  0  0  0  0  0  0
   -0.3992  -52.7910  -21.1956 N   0  0  0  0  0  0  0  0  0  0  0  0
    0.5045  -51.7988  -21.1591 C   0  0  0  0  0  0  0  0  0  0  0  0
    0.9011  -51.5621  -22.4253 N   0  0  0  0  0  0  0  0  0  0  0  0
    0.8174  -51.2648  -19.9161 C   0  0  0  0  0  0  0  0  0  0  0  0
    1.8172  -50.1696  -19.9012 C   0  0  0  0  0  0  0  0  0  0  0  0
    2.4497  -49.9459  -18.6425 N   0  0  0  0  0  0  0  0  0  0  0  0
    2.0941  -50.8257  -17.6015 C   0  0  0  0  0  0  0  0  0  0  0  0
    0.6175  -51.1092  -17.4934 C   0  0  0  0  0  0  0  0  0  0  0  0
    0.2171  -51.7431  -18.7739 C   0  0  0  0  0  0  0  0  0  0  0  0
   -0.6675  -52.7243  -18.8742 N   0  0  0  0  0  0  0  0  0  0  0  0
   -0.9785  -53.2490  -20.0696 C   0  0  0  0  0  0  0  0  0  0  0  0
   -1.8126  -54.1776  -20.1876 O   0  0  0  0  0  0  0  0  0  0  0  0
   -1.1130  -53.0746  -17.9959 H   0  0  0  0  0  0  0  0  0  0  0  0
    0.5967  -52.6070  -27.5351 C   0  0  0  0  0  0  0  0  0  0  0  0
    1.6939  -52.8102  -26.7137 C   0  0  0  0  0  0  0  0  0  0  0  0
    1.5960  -52.7356  -25.3404 C   0  0  0  0  0  0  0  0  0  0  0  0
    0.4086  -52.4575  -24.7359 C   0  0  0  0  0  0  0  0  0  0  0  0
   -0.6857  -52.2542  -25.5414 C   0  0  0  0  0  0  0  0  0  0  0  0
   -0.6096  -52.3246  -26.9264 C   0  0  0  0  0  0  0  0  0  0  0  0
   -0.4937  -52.7866  -29.7304 C   0  0  0  0  0  0  0  0  0  0  0  0
    0.6358  -52.6688  -28.9031 O   0  0  0  0  0  0  0  0  0  0  0  0
    2.4340  -48.5466  -18.3588 C   0  0  0  0  0  0  0  0  0  0  0  0
    3.6090  -47.7946  -18.8140 C   0  0  0  0  0  0  0  0  0  0  0  0
    3.4899  -46.6332  -19.5368 C   0  0  0  0  0  0  0  0  0  0  0  0
    4.6208  -45.9232  -19.9598 C   0  0  0  0  0  0  0  0  0  0  0  0
    5.8599  -46.3870  -19.6526 C   0  0  0  0  0  0  0  0  0  0  0  0
    5.9860  -47.5517  -18.9277 C   0  0  0  0  0  0  0  0  0  0  0  0
    4.8728  -48.2470  -18.5134 C   0  0  0  0  0  0  0  0  0  0  0  0
 22 23  1  0  0  0
 23 16  1  0  0  0
 16 17  2  0  0  0
 17 18  1  0  0  0
 18 19  2  0  0  0
 19 20  1  0  0  0
 20 21  2  0  0  0
 19  1  1  0  0  0
  1  2  2  0  0  0
  2  3  1  0  0  0
  3  4  1  0  0  0
  4  5  2  0  0  0
  4  6  1  0  0  0
  6  7  1  0  0  0
  7  8  1  0  0  0
  8 24  1  0  0  0
 24 25  1  0  0  0
 25 26  2  0  0  0
 26 27  1  0  0  0
 27 28  2  0  0  0
 28 29  1  0  0  0
 29 30  2  0  0  0
  8  9  1  0  0  0
  9 10  1  0  0  0
 10 11  1  0  0  0
 11 12  1  0  0  0
 12 13  1  0  0  0
 13 14  2  0  0  0
 21 16  1  0  0  0
  5  1  1  0  0  0
 11  6  2  0  0  0
 13  3  1  0  0  0
 30 25  1  0  0  0
 12 15  1  0  0  0
M  END
> <minimizedAffinity>
-7.74724

> <CNNscore>
0.5944887996

> <CNNaffinity>
6.7702574730

> <CNN_VS>
4.0248422623

> <CNNaffinity_variance>
0.5873605013

$$$$
[H]c1c([H])c([H])c(C([H])([H])N2C([H])([H])c3c(n([H])c(=O)n4c([H])c(-c5c([H])c([H])c(OC([H])([H])[H])c([H])c5[H])nc34)C([H])([H])C2([H])[H])c([H])c1[H]


 30 34  0  0  0  0  0  0  0  0999 V2000
    0.3319  -51.6373  -19.3177 C   0  0  0  0  0  0  0  0  0  0  0  0
   -0.2692  -52.7650  -19.8377 C   0  0  0  0  0  0  0  0  0  0  0  0
    0.0939  -52.8746  -21.1528 N   0  0  0  0  0  0  0  0  0  0  0  0
    0.8996  -51.8389  -21.4368 C   0  0  0  0  0  0  0  0  0  0  0  0
    1.0299  -51.1043  -20.3143 N   0  0  0  0  0  0  0  0  0  0  0  0
    1.3928  -51.7491  -22.7317 C   0  0  0  0  0  0  0  0  0  0  0  0
    2.2812  -50.5974  -23.0211 C   0  0  0  0  0  0  0  0  0  0  0  0
    2.4101  -50.2658  -24.4023 N   0  0  0  0  0  0  0  0  0  0  0  0
    1.6356  -51.0260  -25.3004 C   0  0  0  0  0  0  0  0  0  0  0  0
    1.6364  -52.5095  -25.0331 C   0  0  0  0  0  0  0  0  0  0  0  0
    1.0608  -52.6919  -23.6776 C   0  0  0  0  0  0  0  0  0  0  0  0
    0.2608  -53.6916  -23.3369 N   0  0  0  0  0  0  0  0  0  0  0  0
   -0.2224  -53.7896  -22.0888 C   0  0  0  0  0  0  0  0  0  0  0  0
   -0.9805  -54.7270  -21.7447 O   0  0  0  0  0  0  0  0  0  0  0  0
    0.0197  -54.3979  -24.0687 H   0  0  0  0  0  0  0  0  0  0  0  0
   -0.1014  -50.3251  -15.2677 C   0  0  0  0  0  0  0  0  0  0  0  0
    0.4751  -49.5168  -16.2344 C   0  0  0  0  0  0  0  0  0  0  0  0
    0.6166  -49.9357  -17.5404 C   0  0  0  0  0  0  0  0  0  0  0  0
    0.1921  -51.1682  -17.9317 C   0  0  0  0  0  0  0  0  0  0  0  0
   -0.3810  -51.9777  -16.9808 C   0  0  0  0  0  0  0  0  0  0  0  0
   -0.5334  -51.5761  -15.6600 C   0  0  0  0  0  0  0  0  0  0  0  0
   -1.1116  -48.9293  -13.5151 C   0  0  0  0  0  0  0  0  0  0  0  0
   -0.2672  -49.9615  -13.9574 O   0  0  0  0  0  0  0  0  0  0  0  0
    3.7934  -50.0891  -24.7089 C   0  0  0  0  0  0  0  0  0  0  0  0
    4.1185  -48.9035  -25.5100 C   0  0  0  0  0  0  0  0  0  0  0  0
    5.2519  -48.8401  -26.2824 C   0  0  0  0  0  0  0  0  0  0  0  0
    5.5462  -47.7034  -27.0463 C   0  0  0  0  0  0  0  0  0  0  0  0
    4.6991  -46.6420  -27.0264 C   0  0  0  0  0  0  0  0  0  0  0  0
    3.5601  -46.6994  -26.2533 C   0  0  0  0  0  0  0  0  0  0  0  0
    3.2738  -47.8178  -25.5039 C   0  0  0  0  0  0  0  0  0  0  0  0
 22 23  1  0  0  0
 23 16  1  0  0  0
 16 17  2  0  0  0
 17 18  1  0  0  0
 18 19  2  0  0  0
 19 20  1  0  0  0
 20 21  2  0  0  0
 19  1  1  0  0  0
  1  2  2  0  0  0
  2  3  1  0  0  0
  3  4  1  0  0  0
  4  5  2  0  0  0
  4  6  1  0  0  0
  6  7  1  0  0  0
  7  8  1  0  0  0
  8 24  1  0  0  0
 24 25  1  0  0  0
 25 26  2  0  0  0
 26 27  1  0  0  0
 27 28  2  0  0  0
 28 29  1  0  0  0
 29 30  2  0  0  0
  8  9  1  0  0  0
  9 10  1  0  0  0
 10 11  1  0  0  0
 11 12  1  0  0  0
 12 13  1  0  0  0
 13 14  2  0  0  0
 21 16  1  0  0  0
  5  1  1  0  0  0
 11  6  2  0  0  0
 13  3  1  0  0  0
 30 25  1  0  0  0
 12 15  1  0  0  0
M  END
> <minimizedAffinity>
-6.61611

> <CNNscore>
0.4995777011

> <CNNaffinity>
6.6143255234

> <CNN_VS>
3.3043694496

> <CNNaffinity_variance>
0.6510081291

$$$$
[H]c1nc(N([H])c2c([H])c([H])c(F)c(F)c2[H])c2oc(-c3c([H])c(OC([H])([H])[H])c([H])c([H])c3F)c([H])c2n1


 28 31  0  0  0  0  0  0  0  0999 V2000
   -0.0406  -52.0921  -20.6633 C   0  0  0  0  0  0  0  0  0  0  0  0
   -0.7487  -53.2448  -20.4312 C   0  0  0  0  0  0  0  0  0  0  0  0
   -0.9697  -53.9146  -21.6413 C   0  0  0  0  0  0  0  0  0  0  0  0
   -1.5817  -55.0502  -22.0175 N   0  0  0  0  0  0  0  0  0  0  0  0
   -1.6182  -55.4286  -23.3247 C   0  0  0  0  0  0  0  0  0  0  0  0
   -1.0270  -54.6376  -24.2275 N   0  0  0  0  0  0  0  0  0  0  0  0
   -0.4018  -53.4967  -23.9228 C   0  0  0  0  0  0  0  0  0  0  0  0
   -0.3621  -53.1006  -22.5651 C   0  0  0  0  0  0  0  0  0  0  0  0
    0.1551  -52.0769  -21.9820 O   0  0  0  0  0  0  0  0  0  0  0  0
    1.6005  -48.9484  -19.4720 C   0  0  0  0  0  0  0  0  0  0  0  0
    1.4072  -48.9984  -18.1072 C   0  0  0  0  0  0  0  0  0  0  0  0
    0.7345  -50.0699  -17.5742 C   0  0  0  0  0  0  0  0  0  0  0  0
    0.2655  -51.0733  -18.4090 C   0  0  0  0  0  0  0  0  0  0  0  0
   -0.3820  -52.0855  -17.8058 F   0  0  0  0  0  0  0  0  0  0  0  0
    0.4416  -51.0516  -19.7644 C   0  0  0  0  0  0  0  0  0  0  0  0
    1.1296  -49.9523  -20.2926 C   0  0  0  0  0  0  0  0  0  0  0  0
    3.1770  -47.0896  -19.2431 C   0  0  0  0  0  0  0  0  0  0  0  0
    2.2784  -47.8620  -19.9778 O   0  0  0  0  0  0  0  0  0  0  0  0
    0.2573  -52.6488  -24.8349 N   0  0  0  0  0  0  0  0  0  0  0  0
    0.9550  -51.9213  -24.5070 H   0  0  0  0  0  0  0  0  0  0  0  0
    0.0230  -52.7188  -26.2312 C   0  0  0  0  0  0  0  0  0  0  0  0
    1.1271  -53.0316  -27.0328 C   0  0  0  0  0  0  0  0  0  0  0  0
    0.9862  -53.0891  -28.3910 C   0  0  0  0  0  0  0  0  0  0  0  0
   -0.2047  -52.8530  -29.0404 C   0  0  0  0  0  0  0  0  0  0  0  0
   -0.2620  -52.9300  -30.3877 F   0  0  0  0  0  0  0  0  0  0  0  0
   -1.2813  -52.5470  -28.2507 C   0  0  0  0  0  0  0  0  0  0  0  0
   -2.4952  -52.3013  -28.8386 F   0  0  0  0  0  0  0  0  0  0  0  0
   -1.1722  -52.4790  -26.8559 C   0  0  0  0  0  0  0  0  0  0  0  0
 17 18  1  0  0  0
 18 10  1  0  0  0
 10 11  2  0  0  0
 11 12  1  0  0  0
 12 13  2  0  0  0
 13 14  1  0  0  0
 13 15  1  0  0  0
 15 16  2  0  0  0
 15  1  1  0  0  0
  1  2  2  0  0  0
  2  3  1  0  0  0
  3  4  2  0  0  0
  4  5  1  0  0  0
  5  6  2  0  0  0
  6  7  1  0  0  0
  7 19  1  0  0  0
 19 21  1  0  0  0
 21 22  2  0  0  0
 22 23  1  0  0  0
 23 24  2  0  0  0
 24 25  1  0  0  0
 24 26  1  0  0  0
 26 27  1  0  0  0
 26 28  2  0  0  0
  7  8  2  0  0  0
  8  9  1  0  0  0
 16 10  1  0  0  0
  9  1  1  0  0  0
  8  3  1  0  0  0
 28 21  1  0  0  0
 19 20  1  0  0  0
M  END
> <minimizedAffinity>
-9.04768

> <CNNscore>
0.9542235136

> <CNNaffinity>
7.2676916122

> <CNN_VS>
6.9350023270

> <CNNaffinity_variance>
0.0585690960

$$$$
[H]c1nc(N([H])c2c([H])c([H])c(F)c(F)c2[H])c2oc(-c3c([H])c(OC([H])([H])[H])c([H])c([H])c3F)c([H])c2n1


 28 31  0  0  0  0  0  0  0  0999 V2000
    0.7849  -52.0211  -20.7055 C   0  0  0  0  0  0  0  0  0  0  0  0
    0.1127  -53.1709  -20.3738 C   0  0  0  0  0  0  0  0  0  0  0  0
   -0.3776  -53.7826  -21.5345 C   0  0  0  0  0  0  0  0  0  0  0  0
   -1.0847  -54.8898  -21.8163 N   0  0  0  0  0  0  0  0  0  0  0  0
   -1.4079  -55.2092  -23.0996 C   0  0  0  0  0  0  0  0  0  0  0  0
   -1.0016  -54.3890  -24.0756 N   0  0  0  0  0  0  0  0  0  0  0  0
   -0.2967  -53.2734  -23.8662 C   0  0  0  0  0  0  0  0  0  0  0  0
    0.0408  -52.9387  -22.5336 C   0  0  0  0  0  0  0  0  0  0  0  0
    0.6963  -51.9507  -22.0340 O   0  0  0  0  0  0  0  0  0  0  0  0
    3.0599  -50.5451  -18.1285 C   0  0  0  0  0  0  0  0  0  0  0  0
    2.8480  -49.1896  -18.2710 C   0  0  0  0  0  0  0  0  0  0  0  0
    1.9534  -48.7569  -19.2182 C   0  0  0  0  0  0  0  0  0  0  0  0
    1.2850  -49.6810  -20.0074 C   0  0  0  0  0  0  0  0  0  0  0  0
    0.4273  -49.1729  -20.9095 F   0  0  0  0  0  0  0  0  0  0  0  0
    1.4739  -51.0297  -19.8896 C   0  0  0  0  0  0  0  0  0  0  0  0
    2.3893  -51.4552  -18.9191 C   0  0  0  0  0  0  0  0  0  0  0  0
    3.6122  -51.3214  -15.8734 C   0  0  0  0  0  0  0  0  0  0  0  0
    3.9625  -50.9494  -17.1706 O   0  0  0  0  0  0  0  0  0  0  0  0
    0.1754  -52.3972  -24.8635 N   0  0  0  0  0  0  0  0  0  0  0  0
    0.7934  -51.5699  -24.6238 H   0  0  0  0  0  0  0  0  0  0  0  0
   -0.1505  -52.5698  -26.2322 C   0  0  0  0  0  0  0  0  0  0  0  0
    0.9138  -52.8605  -27.0936 C   0  0  0  0  0  0  0  0  0  0  0  0
    0.6827  -53.0125  -28.4321 C   0  0  0  0  0  0  0  0  0  0  0  0
   -0.5641  -52.8950  -29.0043 C   0  0  0  0  0  0  0  0  0  0  0  0
   -0.7099  -53.0602  -30.3369 F   0  0  0  0  0  0  0  0  0  0  0  0
   -1.6014  -52.6100  -28.1564 C   0  0  0  0  0  0  0  0  0  0  0  0
   -2.8675  -52.4806  -28.6663 F   0  0  0  0  0  0  0  0  0  0  0  0
   -1.4001  -52.4475  -26.7798 C   0  0  0  0  0  0  0  0  0  0  0  0
 17 18  1  0  0  0
 18 10  1  0  0  0
 10 11  2  0  0  0
 11 12  1  0  0  0
 12 13  2  0  0  0
 13 14  1  0  0  0
 13 15  1  0  0  0
 15 16  2  0  0  0
 15  1  1  0  0  0
  1  2  2  0  0  0
  2  3  1  0  0  0
  3  4  2  0  0  0
  4  5  1  0  0  0
  5  6  2  0  0  0
  6  7  1  0  0  0
  7 19  1  0  0  0
 19 21  1  0  0  0
 21 22  2  0  0  0
 22 23  1  0  0  0
 23 24  2  0  0  0
 24 25  1  0  0  0
 24 26  1  0  0  0
 26 27  1  0  0  0
 26 28  2  0  0  0
  7  8  2  0  0  0
  8  9  1  0  0  0
 16 10  1  0  0  0
  9  1  1  0  0  0
  8  3  1  0  0  0
 28 21  1  0  0  0
 19 20  1  0  0  0
M  END
> <minimizedAffinity>
-8.92550

> <CNNscore>
0.9464808702

> <CNNaffinity>
7.3290495872

> <CNN_VS>
6.9368052483

> <CNNaffinity_variance>
0.0712458044

$$$$
[H]c1nc(N([H])c2c([H])c([H])c(F)c(F)c2[H])c2oc(-c3c([H])c(OC([H])([H])[H])c([H])c([H])c3F)c([H])c2n1


 28 31  0  0  0  0  0  0  0  0999 V2000
   -0.0545  -52.2013  -20.5705 C   0  0  0  0  0  0  0  0  0  0  0  0
   -0.7072  -53.3972  -20.4035 C   0  0  0  0  0  0  0  0  0  0  0  0
   -0.9252  -53.9942  -21.6516 C   0  0  0  0  0  0  0  0  0  0  0  0
   -1.4958  -55.1282  -22.0920 N   0  0  0  0  0  0  0  0  0  0  0  0
   -1.5442  -55.4200  -23.4209 C   0  0  0  0  0  0  0  0  0  0  0  0
   -1.0072  -54.5453  -24.2791 N   0  0  0  0  0  0  0  0  0  0  0  0
   -0.4252  -53.4006  -23.9100 C   0  0  0  0  0  0  0  0  0  0  0  0
   -0.3732  -53.0944  -22.5296 C   0  0  0  0  0  0  0  0  0  0  0  0
    0.1119  -52.0898  -21.8887 O   0  0  0  0  0  0  0  0  0  0  0  0
    0.6795  -50.5272  -17.3064 C   0  0  0  0  0  0  0  0  0  0  0  0
    1.2530  -49.3343  -17.6944 C   0  0  0  0  0  0  0  0  0  0  0  0
    1.3999  -49.0773  -19.0350 C   0  0  0  0  0  0  0  0  0  0  0  0
    0.9734  -50.0123  -19.9664 C   0  0  0  0  0  0  0  0  0  0  0  0
    1.1543  -49.6816  -21.2570 F   0  0  0  0  0  0  0  0  0  0  0  0
    0.4018  -51.2025  -19.6127 C   0  0  0  0  0  0  0  0  0  0  0  0
    0.2589  -51.4498  -18.2419 C   0  0  0  0  0  0  0  0  0  0  0  0
   -0.1836  -51.8139  -15.4110 C   0  0  0  0  0  0  0  0  0  0  0  0
    0.5451  -50.7574  -15.9557 O   0  0  0  0  0  0  0  0  0  0  0  0
    0.1770  -52.4656  -24.7750 N   0  0  0  0  0  0  0  0  0  0  0  0
    0.6164  -51.5746  -24.4050 H   0  0  0  0  0  0  0  0  0  0  0  0
    0.2253  -52.6612  -26.1781 C   0  0  0  0  0  0  0  0  0  0  0  0
   -0.8704  -52.1897  -26.9105 C   0  0  0  0  0  0  0  0  0  0  0  0
   -0.9095  -52.3673  -28.2651 C   0  0  0  0  0  0  0  0  0  0  0  0
    0.0869  -52.9975  -28.9762 C   0  0  0  0  0  0  0  0  0  0  0  0
   -0.0263  -53.1331  -30.3153 F   0  0  0  0  0  0  0  0  0  0  0  0
    1.1562  -53.4571  -28.2540 C   0  0  0  0  0  0  0  0  0  0  0  0
    2.1810  -54.0935  -28.9055 F   0  0  0  0  0  0  0  0  0  0  0  0
    1.2284  -53.2924  -26.8649 C   0  0  0  0  0  0  0  0  0  0  0  0
 17 18  1  0  0  0
 18 10  1  0  0  0
 10 11  2  0  0  0
 11 12  1  0  0  0
 12 13  2  0  0  0
 13 14  1  0  0  0
 13 15  1  0  0  0
 15 16  2  0  0  0
 15  1  1  0  0  0
  1  2  2  0  0  0
  2  3  1  0  0  0
  3  4  2  0  0  0
  4  5  1  0  0  0
  5  6  2  0  0  0
  6  7  1  0  0  0
  7 19  1  0  0  0
 19 21  1  0  0  0
 21 22  2  0  0  0
 22 23  1  0  0  0
 23 24  2  0  0  0
 24 25  1  0  0  0
 24 26  1  0  0  0
 26 27  1  0  0  0
 26 28  2  0  0  0
  7  8  2  0  0  0
  8  9  1  0  0  0
 16 10  1  0  0  0
  9  1  1  0  0  0
  8  3  1  0  0  0
 28 21  1  0  0  0
 19 20  1  0  0  0
M  END
> <minimizedAffinity>
-8.85215

> <CNNscore>
0.8536446691

> <CNNaffinity>
7.1647367477

> <CNN_VS>
6.1161394119

> <CNNaffinity_variance>
0.0604710653

$$$$
[H]c1nc(N([H])c2c([H])c([H])c(F)c(F)c2[H])c2oc(-c3c([H])c(OC([H])([H])[H])c([H])c([H])c3F)c([H])c2n1


 28 31  0  0  0  0  0  0  0  0999 V2000
   -0.5458  -52.7046  -19.7611 C   0  0  0  0  0  0  0  0  0  0  0  0
   -1.2151  -53.8611  -20.0751 C   0  0  0  0  0  0  0  0  0  0  0  0
   -1.1078  -54.1103  -21.4491 C   0  0  0  0  0  0  0  0  0  0  0  0
   -1.5442  -55.0594  -22.2943 N   0  0  0  0  0  0  0  0  0  0  0  0
   -1.2535  -55.0041  -23.6231 C   0  0  0  0  0  0  0  0  0  0  0  0
   -0.5199  -53.9767  -24.0665 N   0  0  0  0  0  0  0  0  0  0  0  0
   -0.0546  -53.0001  -23.2823 C   0  0  0  0  0  0  0  0  0  0  0  0
   -0.3549  -53.0547  -21.9008 C   0  0  0  0  0  0  0  0  0  0  0  0
   -0.0516  -52.2757  -20.9227 O   0  0  0  0  0  0  0  0  0  0  0  0
    0.7853  -50.2793  -17.2429 C   0  0  0  0  0  0  0  0  0  0  0  0
    0.0913  -50.6121  -16.0982 C   0  0  0  0  0  0  0  0  0  0  0  0
   -0.8188  -51.6385  -16.1526 C   0  0  0  0  0  0  0  0  0  0  0  0
   -1.0227  -52.3159  -17.3455 C   0  0  0  0  0  0  0  0  0  0  0  0
   -1.9310  -53.3066  -17.3115 F   0  0  0  0  0  0  0  0  0  0  0  0
   -0.3506  -52.0092  -18.4956 C   0  0  0  0  0  0  0  0  0  0  0  0
    0.5742  -50.9602  -18.4239 C   0  0  0  0  0  0  0  0  0  0  0  0
    1.8255  -48.4125  -16.0487 C   0  0  0  0  0  0  0  0  0  0  0  0
    1.6913  -49.2461  -17.1582 O   0  0  0  0  0  0  0  0  0  0  0  0
    0.7435  -51.9168  -23.7004 N   0  0  0  0  0  0  0  0  0  0  0  0
    0.3114  -50.9969  -24.0017 H   0  0  0  0  0  0  0  0  0  0  0  0
    2.1581  -51.9975  -23.7443 C   0  0  0  0  0  0  0  0  0  0  0  0
    2.7185  -52.4575  -24.9416 C   0  0  0  0  0  0  0  0  0  0  0  0
    4.0745  -52.5898  -25.0505 C   0  0  0  0  0  0  0  0  0  0  0  0
    4.9497  -52.2915  -24.0304 C   0  0  0  0  0  0  0  0  0  0  0  0
    6.2781  -52.4488  -24.2174 F   0  0  0  0  0  0  0  0  0  0  0  0
    4.3953  -51.8423  -22.8611 C   0  0  0  0  0  0  0  0  0  0  0  0
    5.2151  -51.5286  -21.8080 F   0  0  0  0  0  0  0  0  0  0  0  0
    3.0100  -51.6954  -22.7151 C   0  0  0  0  0  0  0  0  0  0  0  0
 17 18  1  0  0  0
 18 10  1  0  0  0
 10 11  2  0  0  0
 11 12  1  0  0  0
 12 13  2  0  0  0
 13 14  1  0  0  0
 13 15  1  0  0  0
 15 16  2  0  0  0
 15  1  1  0  0  0
  1  2  2  0  0  0
  2  3  1  0  0  0
  3  4  2  0  0  0
  4  5  1  0  0  0
  5  6  2  0  0  0
  6  7  1  0  0  0
  7 19  1  0  0  0
 19 21  1  0  0  0
 21 22  2  0  0  0
 22 23  1  0  0  0
 23 24  2  0  0  0
 24 25  1  0  0  0
 24 26  1  0  0  0
 26 27  1  0  0  0
 26 28  2  0  0  0
  7  8  2  0  0  0
  8  9  1  0  0  0
 16 10  1  0  0  0
  9  1  1  0  0  0
  8  3  1  0  0  0
 28 21  1  0  0  0
 19 20  1  0  0  0
M  END
> <minimizedAffinity>
-8.12091

> <CNNscore>
0.7643378377

> <CNNaffinity>
6.8556885719

> <CNN_VS>
5.2400622368

> <CNNaffinity_variance>
0.0724109858

$$$$
[H]c1nc(N([H])c2c([H])c([H])c(F)c(F)c2[H])c2oc(-c3c([H])c(OC([H])([H])[H])c([H])c([H])c3F)c([H])c2n1


 28 31  0  0  0  0  0  0  0  0999 V2000
    0.1411  -52.2047  -20.5114 C   0  0  0  0  0  0  0  0  0  0  0  0
   -0.4942  -53.4155  -20.3918 C   0  0  0  0  0  0  0  0  0  0  0  0
   -0.7401  -53.9472  -21.6639 C   0  0  0  0  0  0  0  0  0  0  0  0
   -1.3106  -55.0627  -22.1494 N   0  0  0  0  0  0  0  0  0  0  0  0
   -1.3924  -55.2834  -23.4903 C   0  0  0  0  0  0  0  0  0  0  0  0
   -0.8884  -54.3575  -24.3142 N   0  0  0  0  0  0  0  0  0  0  0  0
   -0.3086  -53.2274  -23.8996 C   0  0  0  0  0  0  0  0  0  0  0  0
   -0.2219  -52.9951  -22.5066 C   0  0  0  0  0  0  0  0  0  0  0  0
    0.2700  -52.0206  -21.8256 O   0  0  0  0  0  0  0  0  0  0  0  0
    2.1329  -49.4681  -18.9179 C   0  0  0  0  0  0  0  0  0  0  0  0
    1.5875  -49.3866  -17.6536 C   0  0  0  0  0  0  0  0  0  0  0  0
    0.5602  -50.2346  -17.3215 C   0  0  0  0  0  0  0  0  0  0  0  0
    0.0932  -51.1491  -18.2538 C   0  0  0  0  0  0  0  0  0  0  0  0
   -0.9144  -51.9411  -17.8472 F   0  0  0  0  0  0  0  0  0  0  0  0
    0.6131  -51.2533  -19.5137 C   0  0  0  0  0  0  0  0  0  0  0  0
    1.6602  -50.3817  -19.8371 C   0  0  0  0  0  0  0  0  0  0  0  0
    2.9821  -47.2706  -19.5835 C   0  0  0  0  0  0  0  0  0  0  0  0
    3.1617  -48.6052  -19.2223 O   0  0  0  0  0  0  0  0  0  0  0  0
    0.2598  -52.2402  -24.7288 N   0  0  0  0  0  0  0  0  0  0  0  0
   -0.3240  -51.7137  -25.4399 H   0  0  0  0  0  0  0  0  0  0  0  0
    1.6345  -51.9011  -24.6610 C   0  0  0  0  0  0  0  0  0  0  0  0
    1.9836  -50.6231  -25.1129 C   0  0  0  0  0  0  0  0  0  0  0  0
    3.2937  -50.2341  -25.1055 C   0  0  0  0  0  0  0  0  0  0  0  0
    4.3215  -51.0401  -24.6702 C   0  0  0  0  0  0  0  0  0  0  0  0
    5.5916  -50.5811  -24.6942 F   0  0  0  0  0  0  0  0  0  0  0  0
    3.9738  -52.2897  -24.2297 C   0  0  0  0  0  0  0  0  0  0  0  0
    4.9529  -53.1393  -23.7834 F   0  0  0  0  0  0  0  0  0  0  0  0
    2.6412  -52.7208  -24.2239 C   0  0  0  0  0  0  0  0  0  0  0  0
 17 18  1  0  0  0
 18 10  1  0  0  0
 10 11  2  0  0  0
 11 12  1  0  0  0
 12 13  2  0  0  0
 13 14  1  0  0  0
 13 15  1  0  0  0
 15 16  2  0  0  0
 15  1  1  0  0  0
  1  2  2  0  0  0
  2  3  1  0  0  0
  3  4  2  0  0  0
  4  5  1  0  0  0
  5  6  2  0  0  0
  6  7  1  0  0  0
  7 19  1  0  0  0
 19 21  1  0  0  0
 21 22  2  0  0  0
 22 23  1  0  0  0
 23 24  2  0  0  0
 24 25  1  0  0  0
 24 26  1  0  0  0
 26 27  1  0  0  0
 26 28  2  0  0  0
  7  8  2  0  0  0
  8  9  1  0  0  0
 16 10  1  0  0  0
  9  1  1  0  0  0
  8  3  1  0  0  0
 28 21  1  0  0  0
 19 20  1  0  0  0
M  END
> <minimizedAffinity>
-7.69083

> <CNNscore>
0.6250423193

> <CNNaffinity>
6.8316068649

> <CNN_VS>
4.2700433731

> <CNNaffinity_variance>
0.1411279887

$$$$
[H]c1nc(N([H])c2c([H])c([H])c(F)c(F)c2[H])c2oc(-c3c([H])c(OC([H])([H])[H])c([H])c([H])c3F)c([H])c2n1


 28 31  0  0  0  0  0  0  0  0999 V2000
    1.3568  -50.1000  -21.5856 C   0  0  0  0  0  0  0  0  0  0  0  0
    0.4270  -50.7192  -20.7879 C   0  0  0  0  0  0  0  0  0  0  0  0
   -0.0557  -51.8669  -21.4292 C   0  0  0  0  0  0  0  0  0  0  0  0
   -0.9458  -52.8312  -21.1402 N   0  0  0  0  0  0  0  0  0  0  0  0
   -1.1918  -53.8450  -22.0149 C   0  0  0  0  0  0  0  0  0  0  0  0
   -0.5220  -53.8558  -23.1731 N   0  0  0  0  0  0  0  0  0  0  0  0
    0.3753  -52.9300  -23.5237 C   0  0  0  0  0  0  0  0  0  0  0  0
    0.6333  -51.8750  -22.6168 C   0  0  0  0  0  0  0  0  0  0  0  0
    1.4253  -50.8628  -22.6770 O   0  0  0  0  0  0  0  0  0  0  0  0
    3.1316  -47.2837  -19.8786 C   0  0  0  0  0  0  0  0  0  0  0  0
    3.6639  -46.5713  -20.9329 C   0  0  0  0  0  0  0  0  0  0  0  0
    3.4392  -47.0172  -22.2118 C   0  0  0  0  0  0  0  0  0  0  0  0
    2.6887  -48.1649  -22.4192 C   0  0  0  0  0  0  0  0  0  0  0  0
    2.5168  -48.5317  -23.7012 F   0  0  0  0  0  0  0  0  0  0  0  0
    2.1486  -48.8917  -21.3951 C   0  0  0  0  0  0  0  0  0  0  0  0
    2.3865  -48.4240  -20.0969 C   0  0  0  0  0  0  0  0  0  0  0  0
    3.0738  -47.5172  -17.4424 C   0  0  0  0  0  0  0  0  0  0  0  0
    3.3733  -46.8127  -18.6076 O   0  0  0  0  0  0  0  0  0  0  0  0
    1.1230  -52.9171  -24.7178 N   0  0  0  0  0  0  0  0  0  0  0  0
    2.1830  -52.9114  -24.7052 H   0  0  0  0  0  0  0  0  0  0  0  0
    0.5040  -52.9077  -25.9929 C   0  0  0  0  0  0  0  0  0  0  0  0
    1.3293  -53.1892  -27.0878 C   0  0  0  0  0  0  0  0  0  0  0  0
    0.8108  -53.1707  -28.3522 C   0  0  0  0  0  0  0  0  0  0  0  0
   -0.5078  -52.8852  -28.6268 C   0  0  0  0  0  0  0  0  0  0  0  0
   -0.9436  -52.8876  -29.9052 F   0  0  0  0  0  0  0  0  0  0  0  0
   -1.3104  -52.6101  -27.5514 C   0  0  0  0  0  0  0  0  0  0  0  0
   -2.6336  -52.3181  -27.7601 F   0  0  0  0  0  0  0  0  0  0  0  0
   -0.8118  -52.6199  -26.2425 C   0  0  0  0  0  0  0  0  0  0  0  0
 17 18  1  0  0  0
 18 10  1  0  0  0
 10 11  2  0  0  0
 11 12  1  0  0  0
 12 13  2  0  0  0
 13 14  1  0  0  0
 13 15  1  0  0  0
 15 16  2  0  0  0
 15  1  1  0  0  0
  1  2  2  0  0  0
  2  3  1  0  0  0
  3  4  2  0  0  0
  4  5  1  0  0  0
  5  6  2  0  0  0
  6  7  1  0  0  0
  7 19  1  0  0  0
 19 21  1  0  0  0
 21 22  2  0  0  0
 22 23  1  0  0  0
 23 24  2  0  0  0
 24 25  1  0  0  0
 24 26  1  0  0  0
 26 27  1  0  0  0
 26 28  2  0  0  0
  7  8  2  0  0  0
  8  9  1  0  0  0
 16 10  1  0  0  0
  9  1  1  0  0  0
  8  3  1  0  0  0
 28 21  1  0  0  0
 19 20  1  0  0  0
M  END
> <minimizedAffinity>
-7.72481

> <CNNscore>
0.6203197837

> <CNNaffinity>
6.9133939743

> <CNN_VS>
4.2885150909

> <CNNaffinity_variance>
0.1933010519

$$$$
[H]c1nc(N([H])c2c([H])c([H])c(F)c(F)c2[H])c2oc(-c3c([H])c(OC([H])([H])[H])c([H])c([H])c3F)c([H])c2n1


 28 31  0  0  0  0  0  0  0  0999 V2000
   -0.3258  -52.6029  -20.3697 C   0  0  0  0  0  0  0  0  0  0  0  0
   -0.8641  -53.8583  -20.5044 C   0  0  0  0  0  0  0  0  0  0  0  0
   -0.9358  -54.1980  -21.8613 C   0  0  0  0  0  0  0  0  0  0  0  0
   -1.3578  -55.2594  -22.5690 N   0  0  0  0  0  0  0  0  0  0  0  0
   -1.2865  -55.2705  -23.9284 C   0  0  0  0  0  0  0  0  0  0  0  0
   -0.7839  -54.1935  -24.5429 N   0  0  0  0  0  0  0  0  0  0  0  0
   -0.3469  -53.1058  -23.9016 C   0  0  0  0  0  0  0  0  0  0  0  0
   -0.4195  -53.0912  -22.4887 C   0  0  0  0  0  0  0  0  0  0  0  0
   -0.0829  -52.2050  -21.6188 O   0  0  0  0  0  0  0  0  0  0  0  0
   -0.1866  -51.5011  -16.7973 C   0  0  0  0  0  0  0  0  0  0  0  0
    0.4726  -50.2919  -16.8736 C   0  0  0  0  0  0  0  0  0  0  0  0
    0.8739  -49.8349  -18.1044 C   0  0  0  0  0  0  0  0  0  0  0  0
    0.6122  -50.5896  -19.2382 C   0  0  0  0  0  0  0  0  0  0  0  0
    1.0390  -50.0695  -20.4023 F   0  0  0  0  0  0  0  0  0  0  0  0
   -0.0385  -51.7909  -19.1943 C   0  0  0  0  0  0  0  0  0  0  0  0
   -0.4414  -52.2433  -17.9319 C   0  0  0  0  0  0  0  0  0  0  0  0
    0.2090  -51.8261  -14.4033 C   0  0  0  0  0  0  0  0  0  0  0  0
   -0.5770  -51.9338  -15.5499 O   0  0  0  0  0  0  0  0  0  0  0  0
    0.2149  -51.9631  -24.5049 N   0  0  0  0  0  0  0  0  0  0  0  0
   -0.3864  -51.2608  -25.0234 H   0  0  0  0  0  0  0  0  0  0  0  0
    1.6055  -51.6931  -24.4553 C   0  0  0  0  0  0  0  0  0  0  0  0
    2.4533  -52.7055  -24.9197 C   0  0  0  0  0  0  0  0  0  0  0  0
    3.8081  -52.5301  -24.8770 C   0  0  0  0  0  0  0  0  0  0  0  0
    4.4102  -51.3903  -24.3934 C   0  0  0  0  0  0  0  0  0  0  0  0
    5.7574  -51.2938  -24.3856 F   0  0  0  0  0  0  0  0  0  0  0  0
    3.5754  -50.4033  -23.9400 C   0  0  0  0  0  0  0  0  0  0  0  0
    4.1150  -49.2438  -23.4462 F   0  0  0  0  0  0  0  0  0  0  0  0
    2.1827  -50.5501  -23.9687 C   0  0  0  0  0  0  0  0  0  0  0  0
 17 18  1  0  0  0
 18 10  1  0  0  0
 10 11  2  0  0  0
 11 12  1  0  0  0
 12 13  2  0  0  0
 13 14  1  0  0  0
 13 15  1  0  0  0
 15 16  2  0  0  0
 15  1  1  0  0  0
  1  2  2  0  0  0
  2  3  1  0  0  0
  3  4  2  0  0  0
  4  5  1  0  0  0
  5  6  2  0  0  0
  6  7  1  0  0  0
  7 19  1  0  0  0
 19 21  1  0  0  0
 21 22  2  0  0  0
 22 23  1  0  0  0
 23 24  2  0  0  0
 24 25  1  0  0  0
 24 26  1  0  0  0
 26 27  1  0  0  0
 26 28  2  0  0  0
  7  8  2  0  0  0
  8  9  1  0  0  0
 16 10  1  0  0  0
  9  1  1  0  0  0
  8  3  1  0  0  0
 28 21  1  0  0  0
 19 20  1  0  0  0
M  END
> <minimizedAffinity>
-7.89144

> <CNNscore>
0.6117148995

> <CNNaffinity>
6.8063697815

> <CNN_VS>
4.1635580063

> <CNNaffinity_variance>
0.1045651212

$$$$
[H]c1nc(N([H])c2c([H])c([H])c(F)c(F)c2[H])c2oc(-c3c([H])c(OC([H])([H])[H])c([H])c([H])c3F)c([H])c2n1


 28 31  0  0  0  0  0  0  0  0999 V2000
   -0.5806  -53.1846  -24.3504 C   0  0  0  0  0  0  0  0  0  0  0  0
   -1.0076  -54.2126  -23.5473 C   0  0  0  0  0  0  0  0  0  0  0  0
   -0.9169  -53.8301  -22.2030 C   0  0  0  0  0  0  0  0  0  0  0  0
   -1.1850  -54.4022  -21.0171 N   0  0  0  0  0  0  0  0  0  0  0  0
   -0.9767  -53.7318  -19.8507 C   0  0  0  0  0  0  0  0  0  0  0  0
   -0.4965  -52.4847  -19.9166 N   0  0  0  0  0  0  0  0  0  0  0  0
   -0.2085  -51.8566  -21.0602 C   0  0  0  0  0  0  0  0  0  0  0  0
   -0.4240  -52.5506  -22.2742 C   0  0  0  0  0  0  0  0  0  0  0  0
   -0.2436  -52.2125  -23.5024 O   0  0  0  0  0  0  0  0  0  0  0  0
    0.8367  -53.3786  -27.8071 C   0  0  0  0  0  0  0  0  0  0  0  0
   -0.1811  -52.8691  -28.5862 C   0  0  0  0  0  0  0  0  0  0  0  0
   -1.3396  -52.4593  -27.9740 C   0  0  0  0  0  0  0  0  0  0  0  0
   -1.4651  -52.5638  -26.5967 C   0  0  0  0  0  0  0  0  0  0  0  0
   -2.6311  -52.1402  -26.0785 F   0  0  0  0  0  0  0  0  0  0  0  0
   -0.4744  -53.0642  -25.7987 C   0  0  0  0  0  0  0  0  0  0  0  0
    0.7007  -53.4777  -26.4379 C   0  0  0  0  0  0  0  0  0  0  0  0
    3.1949  -53.0879  -28.3967 C   0  0  0  0  0  0  0  0  0  0  0  0
    1.9864  -53.7814  -28.4486 O   0  0  0  0  0  0  0  0  0  0  0  0
    0.2711  -50.5369  -21.1778 N   0  0  0  0  0  0  0  0  0  0  0  0
   -0.3725  -49.7031  -21.0583 H   0  0  0  0  0  0  0  0  0  0  0  0
    1.6302  -50.2532  -21.4637 C   0  0  0  0  0  0  0  0  0  0  0  0
    1.9009  -48.9956  -22.0155 C   0  0  0  0  0  0  0  0  0  0  0  0
    3.1842  -48.6600  -22.3447 C   0  0  0  0  0  0  0  0  0  0  0  0
    4.2583  -49.5021  -22.1638 C   0  0  0  0  0  0  0  0  0  0  0  0
    5.4975  -49.0952  -22.5148 F   0  0  0  0  0  0  0  0  0  0  0  0
    3.9871  -50.7314  -21.6239 C   0  0  0  0  0  0  0  0  0  0  0  0
    5.0152  -51.6150  -21.4192 F   0  0  0  0  0  0  0  0  0  0  0  0
    2.6838  -51.1081  -21.2754 C   0  0  0  0  0  0  0  0  0  0  0  0
 17 18  1  0  0  0
 18 10  1  0  0  0
 10 11  2  0  0  0
 11 12  1  0  0  0
 12 13  2  0  0  0
 13 14  1  0  0  0
 13 15  1  0  0  0
 15 16  2  0  0  0
 15  1  1  0  0  0
  1  2  2  0  0  0
  2  3  1  0  0  0
  3  4  2  0  0  0
  4  5  1  0  0  0
  5  6  2  0  0  0
  6  7  1  0  0  0
  7 19  1  0  0  0
 19 21  1  0  0  0
 21 22  2  0  0  0
 22 23  1  0  0  0
 23 24  2  0  0  0
 24 25  1  0  0  0
 24 26  1  0  0  0
 26 27  1  0  0  0
 26 28  2  0  0  0
  7  8  2  0  0  0
  8  9  1  0  0  0
 16 10  1  0  0  0
  9  1  1  0  0  0
  8  3  1  0  0  0
 28 21  1  0  0  0
 19 20  1  0  0  0
M  END
> <minimizedAffinity>
-7.70611

> <CNNscore>
0.6060089469

> <CNNaffinity>
6.9078931808

> <CNN_VS>
4.1862449646

> <CNNaffinity_variance>
0.1434871256

$$$$
[H]c1nc(N([H])c2c([H])c([H])c(F)c(F)c2[H])c2oc(-c3c([H])c(OC([H])([H])[H])c([H])c([H])c3F)c([H])c2n1


 28 31  0  0  0  0  0  0  0  0999 V2000
   -0.1607  -52.1862  -20.1519 C   0  0  0  0  0  0  0  0  0  0  0  0
   -0.7013  -53.4456  -20.0771 C   0  0  0  0  0  0  0  0  0  0  0  0
   -0.9203  -53.9427  -21.3681 C   0  0  0  0  0  0  0  0  0  0  0  0
   -1.4102  -55.0778  -21.8945 N   0  0  0  0  0  0  0  0  0  0  0  0
   -1.4899  -55.2497  -23.2426 C   0  0  0  0  0  0  0  0  0  0  0  0
   -1.0664  -54.2557  -24.0318 N   0  0  0  0  0  0  0  0  0  0  0  0
   -0.5691  -53.1024  -23.5756 C   0  0  0  0  0  0  0  0  0  0  0  0
   -0.4849  -52.9207  -22.1750 C   0  0  0  0  0  0  0  0  0  0  0  0
   -0.0606  -51.9399  -21.4585 O   0  0  0  0  0  0  0  0  0  0  0  0
    1.5394  -49.2938  -18.4969 C   0  0  0  0  0  0  0  0  0  0  0  0
    1.0925  -49.3781  -17.1948 C   0  0  0  0  0  0  0  0  0  0  0  0
    0.2282  -50.3900  -16.8573 C   0  0  0  0  0  0  0  0  0  0  0  0
   -0.1766  -51.3005  -17.8219 C   0  0  0  0  0  0  0  0  0  0  0  0
   -1.0234  -52.2591  -17.4075 F   0  0  0  0  0  0  0  0  0  0  0  0
    0.2489  -51.2428  -19.1197 C   0  0  0  0  0  0  0  0  0  0  0  0
    1.1300  -50.2053  -19.4481 C   0  0  0  0  0  0  0  0  0  0  0  0
    3.7755  -48.2988  -18.5499 C   0  0  0  0  0  0  0  0  0  0  0  0
    2.4053  -48.2689  -18.8059 O   0  0  0  0  0  0  0  0  0  0  0  0
   -0.0862  -52.0422  -24.3680 N   0  0  0  0  0  0  0  0  0  0  0  0
   -0.4482  -51.0532  -24.2468 H   0  0  0  0  0  0  0  0  0  0  0  0
    0.9008  -52.2382  -25.3664 C   0  0  0  0  0  0  0  0  0  0  0  0
    0.4547  -52.2292  -26.6931 C   0  0  0  0  0  0  0  0  0  0  0  0
    1.3429  -52.4401  -27.7102 C   0  0  0  0  0  0  0  0  0  0  0  0
    2.6859  -52.6672  -27.5090 C   0  0  0  0  0  0  0  0  0  0  0  0
    3.4996  -52.8666  -28.5684 F   0  0  0  0  0  0  0  0  0  0  0  0
    3.1164  -52.6753  -26.2086 C   0  0  0  0  0  0  0  0  0  0  0  0
    4.4432  -52.8963  -25.9434 F   0  0  0  0  0  0  0  0  0  0  0  0
    2.2333  -52.4632  -25.1423 C   0  0  0  0  0  0  0  0  0  0  0  0
 17 18  1  0  0  0
 18 10  1  0  0  0
 10 11  2  0  0  0
 11 12  1  0  0  0
 12 13  2  0  0  0
 13 14  1  0  0  0
 13 15  1  0  0  0
 15 16  2  0  0  0
 15  1  1  0  0  0
  1  2  2  0  0  0
  2  3  1  0  0  0
  3  4  2  0  0  0
  4  5  1  0  0  0
  5  6  2  0  0  0
  6  7  1  0  0  0
  7 19  1  0  0  0
 19 21  1  0  0  0
 21 22  2  0  0  0
 22 23  1  0  0  0
 23 24  2  0  0  0
 24 25  1  0  0  0
 24 26  1  0  0  0
 26 27  1  0  0  0
 26 28  2  0  0  0
  7  8  2  0  0  0
  8  9  1  0  0  0
 16 10  1  0  0  0
  9  1  1  0  0  0
  8  3  1  0  0  0
 28 21  1  0  0  0
 19 20  1  0  0  0
M  END
> <minimizedAffinity>
-7.94834

> <CNNscore>
0.5540603399

> <CNNaffinity>
6.8204698563

> <CNN_VS>
3.7789518833

> <CNNaffinity_variance>
0.2203847468

$$$$
[H]OC(=O)c1c([H])c([H])c(/C([H])=C(\[H])c2nc3c([H])c([H])c(C4([H])C([H])([H])C4([H])[H])c([H])c3c(=O)n2N([H])[H])c([H])c1[H]


 29 32  0  0  0  0  0  0  0  0999 V2000
   -0.5022  -54.3025  -20.6309 N   0  0  0  0  0  0  0  0  0  0  0  0
   -0.1061  -53.4903  -21.6742 N   0  0  0  0  0  0  0  0  0  0  0  0
    0.5821  -52.3810  -21.5009 C   0  0  0  0  0  0  0  0  0  0  0  0
    0.9157  -51.6575  -22.6385 N   0  0  0  0  0  0  0  0  0  0  0  0
    0.5687  -52.0443  -23.8600 C   0  0  0  0  0  0  0  0  0  0  0  0
    0.9029  -51.3206  -24.9917 C   0  0  0  0  0  0  0  0  0  0  0  0
    0.5123  -51.7763  -26.2330 C   0  0  0  0  0  0  0  0  0  0  0  0
   -0.2061  -52.9378  -26.3913 C   0  0  0  0  0  0  0  0  0  0  0  0
   -0.5312  -53.6472  -25.2539 C   0  0  0  0  0  0  0  0  0  0  0  0
   -0.1521  -53.2119  -24.0036 C   0  0  0  0  0  0  0  0  0  0  0  0
   -0.5065  -53.9629  -22.9116 C   0  0  0  0  0  0  0  0  0  0  0  0
   -1.1655  -55.0336  -23.0213 O   0  0  0  0  0  0  0  0  0  0  0  0
    0.0377  -55.1087  -20.2462 H   0  0  0  0  0  0  0  0  0  0  0  0
   -1.4356  -54.1063  -20.1766 H   0  0  0  0  0  0  0  0  0  0  0  0
   -0.6148  -53.4107  -27.7151 C   0  0  0  0  0  0  0  0  0  0  0  0
   -0.1077  -52.7810  -28.9586 C   0  0  0  0  0  0  0  0  0  0  0  0
   -1.5368  -52.5085  -28.4759 C   0  0  0  0  0  0  0  0  0  0  0  0
    1.0184  -51.8546  -20.2307 C   0  0  0  0  0  0  0  0  0  0  0  0
    0.5680  -50.8885  -19.5022 C   0  0  0  0  0  0  0  0  0  0  0  0
    1.1588  -50.4861  -18.2018 C   0  0  0  0  0  0  0  0  0  0  0  0
    0.4746  -49.7793  -17.2741 C   0  0  0  0  0  0  0  0  0  0  0  0
    1.0894  -49.4285  -16.0622 C   0  0  0  0  0  0  0  0  0  0  0  0
    2.3834  -49.8095  -15.8334 C   0  0  0  0  0  0  0  0  0  0  0  0
    3.1073  -50.5295  -16.7572 C   0  0  0  0  0  0  0  0  0  0  0  0
    2.4826  -50.8556  -17.9257 C   0  0  0  0  0  0  0  0  0  0  0  0
    3.0165  -49.4377  -14.5633 C   0  0  0  0  0  0  0  0  0  0  0  0
    4.3847  -49.5306  -14.3929 O   0  0  0  0  0  0  0  0  0  0  0  0
    2.3214  -49.0256  -13.6021 O   0  0  0  0  0  0  0  0  0  0  0  0
    4.7742  -49.8780  -13.5334 H   0  0  0  0  0  0  0  0  0  0  0  0
  1  2  1  0  0  0
  2  3  1  0  0  0
  3 18  1  0  0  0
 18 19  2  0  0  0
 19 20  1  0  0  0
 20 21  2  0  0  0
 21 22  1  0  0  0
 22 23  2  0  0  0
 23 24  1  0  0  0
 24 25  2  0  0  0
 23 26  1  0  0  0
 26 27  1  0  0  0
 26 28  2  0  0  0
  3  4  2  0  0  0
  4  5  1  0  0  0
  5  6  2  0  0  0
  6  7  1  0  0  0
  7  8  2  0  0  0
  8  9  1  0  0  0
  9 10  2  0  0  0
 10 11  1  0  0  0
 11 12  2  0  0  0
  8 15  1  0  0  0
 15 16  1  0  0  0
 16 17  1  0  0  0
 11  2  1  0  0  0
 17 15  1  0  0  0
 25 20  1  0  0  0
 10  5  1  0  0  0
  1 13  1  0  0  0
  1 14  1  0  0  0
 27 29  1  0  0  0
M  END
> <minimizedAffinity>
-8.36770

> <CNNscore>
0.5163470507

> <CNNaffinity>
6.2267184258

> <CNN_VS>
3.2151477337

> <CNNaffinity_variance>
0.7554410696

$$$$
[H]OC(=O)c1c([H])c([H])c(/C([H])=C(\[H])c2nc3c([H])c([H])c(C4([H])C([H])([H])C4([H])[H])c([H])c3c(=O)n2N([H])[H])c([H])c1[H]


 29 32  0  0  0  0  0  0  0  0999 V2000
   -1.2584  -51.6073  -22.9061 N   0  0  0  0  0  0  0  0  0  0  0  0
    0.0049  -51.0559  -22.8361 N   0  0  0  0  0  0  0  0  0  0  0  0
    0.8159  -50.9822  -23.8710 C   0  0  0  0  0  0  0  0  0  0  0  0
    2.0604  -50.4025  -23.6613 N   0  0  0  0  0  0  0  0  0  0  0  0
    2.4419  -49.9346  -22.4791 C   0  0  0  0  0  0  0  0  0  0  0  0
    3.6832  -49.3574  -22.2737 C   0  0  0  0  0  0  0  0  0  0  0  0
    4.0196  -48.8903  -21.0208 C   0  0  0  0  0  0  0  0  0  0  0  0
    3.1572  -48.9773  -19.9536 C   0  0  0  0  0  0  0  0  0  0  0  0
    1.9244  -49.5550  -20.1747 C   0  0  0  0  0  0  0  0  0  0  0  0
    1.5661  -50.0287  -21.4172 C   0  0  0  0  0  0  0  0  0  0  0  0
    0.3251  -50.5926  -21.5721 C   0  0  0  0  0  0  0  0  0  0  0  0
   -0.4906  -50.6883  -20.6138 O   0  0  0  0  0  0  0  0  0  0  0  0
   -2.1395  -51.0896  -23.1188 H   0  0  0  0  0  0  0  0  0  0  0  0
   -1.3581  -52.6432  -22.7236 H   0  0  0  0  0  0  0  0  0  0  0  0
    3.5266  -48.4774  -18.6282 C   0  0  0  0  0  0  0  0  0  0  0  0
    3.6288  -47.0254  -18.3434 C   0  0  0  0  0  0  0  0  0  0  0  0
    4.8931  -47.8752  -18.5140 C   0  0  0  0  0  0  0  0  0  0  0  0
    0.5210  -51.4520  -25.2025 C   0  0  0  0  0  0  0  0  0  0  0  0
   -0.2535  -52.3934  -25.6281 C   0  0  0  0  0  0  0  0  0  0  0  0
   -0.4309  -52.7364  -27.0609 C   0  0  0  0  0  0  0  0  0  0  0  0
   -1.6264  -53.0847  -27.5879 C   0  0  0  0  0  0  0  0  0  0  0  0
   -1.7297  -53.3984  -28.9520 C   0  0  0  0  0  0  0  0  0  0  0  0
   -0.6103  -53.3473  -29.7371 C   0  0  0  0  0  0  0  0  0  0  0  0
    0.6214  -52.9965  -29.2314 C   0  0  0  0  0  0  0  0  0  0  0  0
    0.6901  -52.6970  -27.9018 C   0  0  0  0  0  0  0  0  0  0  0  0
   -0.7293  -53.6771  -31.1616 C   0  0  0  0  0  0  0  0  0  0  0  0
    0.2379  -53.2876  -32.0683 O   0  0  0  0  0  0  0  0  0  0  0  0
   -1.7190  -54.3238  -31.5847 O   0  0  0  0  0  0  0  0  0  0  0  0
   -0.0178  -52.9394  -32.9764 H   0  0  0  0  0  0  0  0  0  0  0  0
  1  2  1  0  0  0
  2  3  1  0  0  0
  3 18  1  0  0  0
 18 19  2  0  0  0
 19 20  1  0  0  0
 20 21  2  0  0  0
 21 22  1  0  0  0
 22 23  2  0  0  0
 23 24  1  0  0  0
 24 25  2  0  0  0
 23 26  1  0  0  0
 26 27  1  0  0  0
 26 28  2  0  0  0
  3  4  2  0  0  0
  4  5  1  0  0  0
  5  6  2  0  0  0
  6  7  1  0  0  0
  7  8  2  0  0  0
  8  9  1  0  0  0
  9 10  2  0  0  0
 10 11  1  0  0  0
 11 12  2  0  0  0
  8 15  1  0  0  0
 15 16  1  0  0  0
 16 17  1  0  0  0
 11  2  1  0  0  0
 17 15  1  0  0  0
 25 20  1  0  0  0
 10  5  1  0  0  0
  1 13  1  0  0  0
  1 14  1  0  0  0
 27 29  1  0  0  0
M  END
> <minimizedAffinity>
1.55460

> <CNNscore>
0.4410219193

> <CNNaffinity>
6.1305704117

> <CNN_VS>
2.7037160397

> <CNNaffinity_variance>
2.4145081043

$$$$
[H]OC(=O)c1c([H])c([H])c(/C([H])=C(\[H])c2nc3c([H])c([H])c(C4([H])C([H])([H])C4([H])[H])c([H])c3c(=O)n2N([H])[H])c([H])c1[H]


 29 32  0  0  0  0  0  0  0  0999 V2000
   -1.5116  -54.6842  -21.9222 N   0  0  0  0  0  0  0  0  0  0  0  0
   -0.7686  -53.7096  -22.5572 N   0  0  0  0  0  0  0  0  0  0  0  0
   -0.2810  -52.6568  -21.9342 C   0  0  0  0  0  0  0  0  0  0  0  0
    0.4495  -51.7523  -22.6941 N   0  0  0  0  0  0  0  0  0  0  0  0
    0.6624  -51.9174  -23.9939 C   0  0  0  0  0  0  0  0  0  0  0  0
    1.3910  -51.0138  -24.7481 C   0  0  0  0  0  0  0  0  0  0  0  0
    1.5766  -51.2426  -26.0950 C   0  0  0  0  0  0  0  0  0  0  0  0
    1.0585  -52.3489  -26.7257 C   0  0  0  0  0  0  0  0  0  0  0  0
    0.3350  -53.2396  -25.9602 C   0  0  0  0  0  0  0  0  0  0  0  0
    0.1364  -53.0322  -24.6134 C   0  0  0  0  0  0  0  0  0  0  0  0
   -0.5925  -53.9556  -23.9075 C   0  0  0  0  0  0  0  0  0  0  0  0
   -1.0821  -54.9818  -24.4551 O   0  0  0  0  0  0  0  0  0  0  0  0
   -1.1322  -55.5523  -21.4841 H   0  0  0  0  0  0  0  0  0  0  0  0
   -2.5592  -54.5563  -21.8739 H   0  0  0  0  0  0  0  0  0  0  0  0
    1.2629  -52.5802  -28.1567 C   0  0  0  0  0  0  0  0  0  0  0  0
    0.1492  -52.9888  -29.0471 C   0  0  0  0  0  0  0  0  0  0  0  0
    1.2040  -54.0086  -28.6032 C   0  0  0  0  0  0  0  0  0  0  0  0
   -0.4413  -52.3640  -20.5309 C   0  0  0  0  0  0  0  0  0  0  0  0
    0.2687  -51.6587  -19.7152 C   0  0  0  0  0  0  0  0  0  0  0  0
   -0.0603  -51.4696  -18.2806 C   0  0  0  0  0  0  0  0  0  0  0  0
    0.3734  -50.4084  -17.5636 C   0  0  0  0  0  0  0  0  0  0  0  0
    0.0281  -50.2859  -16.2088 C   0  0  0  0  0  0  0  0  0  0  0  0
   -0.7491  -51.2497  -15.6265 C   0  0  0  0  0  0  0  0  0  0  0  0
   -1.2067  -52.3422  -16.3286 C   0  0  0  0  0  0  0  0  0  0  0  0
   -0.8545  -52.4335  -17.6438 C   0  0  0  0  0  0  0  0  0  0  0  0
   -1.1043  -51.1120  -14.2098 C   0  0  0  0  0  0  0  0  0  0  0  0
   -1.7813  -52.1148  -13.5423 O   0  0  0  0  0  0  0  0  0  0  0  0
   -0.7970  -50.0734  -13.5745 O   0  0  0  0  0  0  0  0  0  0  0  0
   -2.5190  -51.8956  -12.8950 H   0  0  0  0  0  0  0  0  0  0  0  0
  1  2  1  0  0  0
  2  3  1  0  0  0
  3 18  1  0  0  0
 18 19  2  0  0  0
 19 20  1  0  0  0
 20 21  2  0  0  0
 21 22  1  0  0  0
 22 23  2  0  0  0
 23 24  1  0  0  0
 24 25  2  0  0  0
 23 26  1  0  0  0
 26 27  1  0  0  0
 26 28  2  0  0  0
  3  4  2  0  0  0
  4  5  1  0  0  0
  5  6  2  0  0  0
  6  7  1  0  0  0
  7  8  2  0  0  0
  8  9  1  0  0  0
  9 10  2  0  0  0
 10 11  1  0  0  0
 11 12  2  0  0  0
  8 15  1  0  0  0
 15 16  1  0  0  0
 16 17  1  0  0  0
 11  2  1  0  0  0
 17 15  1  0  0  0
 25 20  1  0  0  0
 10  5  1  0  0  0
  1 13  1  0  0  0
  1 14  1  0  0  0
 27 29  1  0  0  0
M  END
> <minimizedAffinity>
-8.18043

> <CNNscore>
0.4046748281

> <CNNaffinity>
6.1303610802

> <CNN_VS>
2.4808027744

> <CNNaffinity_variance>
0.4257575572

$$$$
[H]OC(=O)c1c([H])c([H])c(/C([H])=C(\[H])c2nc3c([H])c([H])c(C4([H])C([H])([H])C4([H])[H])c([H])c3c(=O)n2N([H])[H])c([H])c1[H]


 29 32  0  0  0  0  0  0  0  0999 V2000
    0.2110  -53.5781  -22.1987 N   0  0  0  0  0  0  0  0  0  0  0  0
    0.1903  -52.9115  -20.9903 N   0  0  0  0  0  0  0  0  0  0  0  0
    1.0795  -51.9993  -20.6568 C   0  0  0  0  0  0  0  0  0  0  0  0
    0.9416  -51.4058  -19.4087 N   0  0  0  0  0  0  0  0  0  0  0  0
   -0.0351  -51.7253  -18.5684 C   0  0  0  0  0  0  0  0  0  0  0  0
   -0.1695  -51.1317  -17.3251 C   0  0  0  0  0  0  0  0  0  0  0  0
   -1.2066  -51.5079  -16.4980 C   0  0  0  0  0  0  0  0  0  0  0  0
   -2.1243  -52.4630  -16.8663 C   0  0  0  0  0  0  0  0  0  0  0  0
   -1.9764  -53.0449  -18.1081 C   0  0  0  0  0  0  0  0  0  0  0  0
   -0.9488  -52.6854  -18.9514 C   0  0  0  0  0  0  0  0  0  0  0  0
   -0.8565  -53.3015  -20.1737 C   0  0  0  0  0  0  0  0  0  0  0  0
   -1.6818  -54.1820  -20.5431 O   0  0  0  0  0  0  0  0  0  0  0  0
   -0.2819  -53.2795  -23.0691 H   0  0  0  0  0  0  0  0  0  0  0  0
    0.7655  -54.4753  -22.2607 H   0  0  0  0  0  0  0  0  0  0  0  0
   -3.2210  -52.8534  -15.9787 C   0  0  0  0  0  0  0  0  0  0  0  0
   -4.5565  -52.2137  -16.0618 C   0  0  0  0  0  0  0  0  0  0  0  0
   -3.5938  -51.8583  -14.9232 C   0  0  0  0  0  0  0  0  0  0  0  0
    2.1834  -51.5648  -21.4774 C   0  0  0  0  0  0  0  0  0  0  0  0
    2.3378  -50.5250  -22.2271 C   0  0  0  0  0  0  0  0  0  0  0  0
    3.5664  -50.2429  -23.0100 C   0  0  0  0  0  0  0  0  0  0  0  0
    4.5553  -51.1505  -23.1732 C   0  0  0  0  0  0  0  0  0  0  0  0
    5.6939  -50.8232  -23.9257 C   0  0  0  0  0  0  0  0  0  0  0  0
    5.7892  -49.5799  -24.4889 C   0  0  0  0  0  0  0  0  0  0  0  0
    4.8002  -48.6333  -24.3415 C   0  0  0  0  0  0  0  0  0  0  0  0
    3.7056  -48.9809  -23.6045 C   0  0  0  0  0  0  0  0  0  0  0  0
    6.9835  -49.2480  -25.2735 C   0  0  0  0  0  0  0  0  0  0  0  0
    7.8160  -50.2375  -25.7606 O   0  0  0  0  0  0  0  0  0  0  0  0
    7.2720  -48.0506  -25.5179 O   0  0  0  0  0  0  0  0  0  0  0  0
    8.8154  -50.1287  -25.7345 H   0  0  0  0  0  0  0  0  0  0  0  0
  1  2  1  0  0  0
  2  3  1  0  0  0
  3 18  1  0  0  0
 18 19  2  0  0  0
 19 20  1  0  0  0
 20 21  2  0  0  0
 21 22  1  0  0  0
 22 23  2  0  0  0
 23 24  1  0  0  0
 24 25  2  0  0  0
 23 26  1  0  0  0
 26 27  1  0  0  0
 26 28  2  0  0  0
  3  4  2  0  0  0
  4  5  1  0  0  0
  5  6  2  0  0  0
  6  7  1  0  0  0
  7  8  2  0  0  0
  8  9  1  0  0  0
  9 10  2  0  0  0
 10 11  1  0  0  0
 11 12  2  0  0  0
  8 15  1  0  0  0
 15 16  1  0  0  0
 16 17  1  0  0  0
 11  2  1  0  0  0
 17 15  1  0  0  0
 25 20  1  0  0  0
 10  5  1  0  0  0
  1 13  1  0  0  0
  1 14  1  0  0  0
 27 29  1  0  0  0
M  END
> <minimizedAffinity>
-6.70115

> <CNNscore>
0.3689174652

> <CNNaffinity>
5.8082661629

> <CNN_VS>
2.1427707672

> <CNNaffinity_variance>
0.9002518654

$$$$
[H]OC(=O)c1c([H])c([H])c(/C([H])=C(\[H])c2nc3c([H])c([H])c(C4([H])C([H])([H])C4([H])[H])c([H])c3c(=O)n2N([H])[H])c([H])c1[H]


 29 32  0  0  0  0  0  0  0  0999 V2000
   -1.1857  -53.8489  -21.0464 N   0  0  0  0  0  0  0  0  0  0  0  0
   -0.1506  -52.9443  -20.9233 N   0  0  0  0  0  0  0  0  0  0  0  0
   -0.0259  -52.1293  -19.8964 C   0  0  0  0  0  0  0  0  0  0  0  0
    1.0642  -51.2687  -19.8987 N   0  0  0  0  0  0  0  0  0  0  0  0
    1.9572  -51.2475  -20.8806 C   0  0  0  0  0  0  0  0  0  0  0  0
    3.0426  -50.3883  -20.8795 C   0  0  0  0  0  0  0  0  0  0  0  0
    3.9351  -50.4153  -21.9300 C   0  0  0  0  0  0  0  0  0  0  0  0
    3.7860  -51.2747  -22.9927 C   0  0  0  0  0  0  0  0  0  0  0  0
    2.6994  -52.1243  -22.9787 C   0  0  0  0  0  0  0  0  0  0  0  0
    1.7947  -52.1155  -21.9405 C   0  0  0  0  0  0  0  0  0  0  0  0
    0.7349  -52.9855  -21.9859 C   0  0  0  0  0  0  0  0  0  0  0  0
    0.5681  -53.7873  -22.9461 O   0  0  0  0  0  0  0  0  0  0  0  0
   -1.1770  -54.8363  -20.7080 H   0  0  0  0  0  0  0  0  0  0  0  0
   -2.0689  -53.5290  -21.5301 H   0  0  0  0  0  0  0  0  0  0  0  0
    4.7410  -51.2934  -24.1021 C   0  0  0  0  0  0  0  0  0  0  0  0
    6.1397  -51.7516  -23.9188 C   0  0  0  0  0  0  0  0  0  0  0  0
    5.8219  -50.2580  -24.0518 C   0  0  0  0  0  0  0  0  0  0  0  0
   -0.9248  -52.0551  -18.7708 C   0  0  0  0  0  0  0  0  0  0  0  0
   -0.7466  -52.2896  -17.5137 C   0  0  0  0  0  0  0  0  0  0  0  0
   -1.8097  -52.1568  -16.4870 C   0  0  0  0  0  0  0  0  0  0  0  0
   -1.6034  -51.5575  -15.2925 C   0  0  0  0  0  0  0  0  0  0  0  0
   -2.6501  -51.4631  -14.3624 C   0  0  0  0  0  0  0  0  0  0  0  0
   -3.8755  -51.9829  -14.6789 C   0  0  0  0  0  0  0  0  0  0  0  0
   -4.1182  -52.5991  -15.8861 C   0  0  0  0  0  0  0  0  0  0  0  0
   -3.0810  -52.6755  -16.7696 C   0  0  0  0  0  0  0  0  0  0  0  0
   -4.9628  -51.8789  -13.6995 C   0  0  0  0  0  0  0  0  0  0  0  0
   -4.9651  -50.8871  -12.7373 O   0  0  0  0  0  0  0  0  0  0  0  0
   -5.9170  -52.6949  -13.7186 O   0  0  0  0  0  0  0  0  0  0  0  0
   -5.2452  -51.0870  -11.7924 H   0  0  0  0  0  0  0  0  0  0  0  0
  1  2  1  0  0  0
  2  3  1  0  0  0
  3 18  1  0  0  0
 18 19  2  0  0  0
 19 20  1  0  0  0
 20 21  2  0  0  0
 21 22  1  0  0  0
 22 23  2  0  0  0
 23 24  1  0  0  0
 24 25  2  0  0  0
 23 26  1  0  0  0
 26 27  1  0  0  0
 26 28  2  0  0  0
  3  4  2  0  0  0
  4  5  1  0  0  0
  5  6  2  0  0  0
  6  7  1  0  0  0
  7  8  2  0  0  0
  8  9  1  0  0  0
  9 10  2  0  0  0
 10 11  1  0  0  0
 11 12  2  0  0  0
  8 15  1  0  0  0
 15 16  1  0  0  0
 16 17  1  0  0  0
 11  2  1  0  0  0
 17 15  1  0  0  0
 25 20  1  0  0  0
 10  5  1  0  0  0
  1 13  1  0  0  0
  1 14  1  0  0  0
 27 29  1  0  0  0
M  END
> <minimizedAffinity>
-6.04714

> <CNNscore>
0.3630639017

> <CNNaffinity>
5.8274245262

> <CNN_VS>
2.1157274246

> <CNNaffinity_variance>
0.5955067873

$$$$
[H]OC(=O)c1c([H])c([H])c(/C([H])=C(\[H])c2nc3c([H])c([H])c(C4([H])C([H])([H])C4([H])[H])c([H])c3c(=O)n2N([H])[H])c([H])c1[H]


 29 32  0  0  0  0  0  0  0  0999 V2000
    3.2855  -50.7158  -24.9590 N   0  0  0  0  0  0  0  0  0  0  0  0
    3.3027  -49.3462  -25.1298 N   0  0  0  0  0  0  0  0  0  0  0  0
    3.2917  -48.4958  -24.1244 C   0  0  0  0  0  0  0  0  0  0  0  0
    3.3114  -47.1430  -24.4380 N   0  0  0  0  0  0  0  0  0  0  0  0
    3.3403  -46.6986  -25.6885 C   0  0  0  0  0  0  0  0  0  0  0  0
    3.3599  -45.3494  -25.9974 C   0  0  0  0  0  0  0  0  0  0  0  0
    3.3895  -44.9520  -27.3173 C   0  0  0  0  0  0  0  0  0  0  0  0
    3.4006  -45.8572  -28.3520 C   0  0  0  0  0  0  0  0  0  0  0  0
    3.3808  -47.1977  -28.0276 C   0  0  0  0  0  0  0  0  0  0  0  0
    3.3510  -47.6185  -26.7166 C   0  0  0  0  0  0  0  0  0  0  0  0
    3.3325  -48.9660  -26.4600 C   0  0  0  0  0  0  0  0  0  0  0  0
    3.3418  -49.8236  -27.3858 O   0  0  0  0  0  0  0  0  0  0  0  0
    4.1246  -51.3319  -24.8823 H   0  0  0  0  0  0  0  0  0  0  0  0
    2.3465  -51.1972  -24.9063 H   0  0  0  0  0  0  0  0  0  0  0  0
    3.4322  -45.4221  -29.7495 C   0  0  0  0  0  0  0  0  0  0  0  0
    4.6275  -45.6280  -30.6031 C   0  0  0  0  0  0  0  0  0  0  0  0
    4.3000  -44.2380  -30.0461 C   0  0  0  0  0  0  0  0  0  0  0  0
    3.2610  -48.8504  -22.7265 C   0  0  0  0  0  0  0  0  0  0  0  0
    2.2902  -49.2042  -21.9524 C   0  0  0  0  0  0  0  0  0  0  0  0
    2.4548  -49.5362  -20.5154 C   0  0  0  0  0  0  0  0  0  0  0  0
    1.5922  -49.1151  -19.5632 C   0  0  0  0  0  0  0  0  0  0  0  0
    1.8025  -49.4625  -18.2197 C   0  0  0  0  0  0  0  0  0  0  0  0
    2.8864  -50.2290  -17.8885 C   0  0  0  0  0  0  0  0  0  0  0  0
    3.7832  -50.6736  -18.8339 C   0  0  0  0  0  0  0  0  0  0  0  0
    3.5521  -50.3196  -20.1314 C   0  0  0  0  0  0  0  0  0  0  0  0
    3.0969  -50.5865  -16.4813 C   0  0  0  0  0  0  0  0  0  0  0  0
    4.1129  -51.4449  -16.1066 O   0  0  0  0  0  0  0  0  0  0  0  0
    2.3525  -50.1153  -15.5866 O   0  0  0  0  0  0  0  0  0  0  0  0
    3.9607  -52.1469  -15.4029 H   0  0  0  0  0  0  0  0  0  0  0  0
  1  2  1  0  0  0
  2  3  1  0  0  0
  3 18  1  0  0  0
 18 19  2  0  0  0
 19 20  1  0  0  0
 20 21  2  0  0  0
 21 22  1  0  0  0
 22 23  2  0  0  0
 23 24  1  0  0  0
 24 25  2  0  0  0
 23 26  1  0  0  0
 26 27  1  0  0  0
 26 28  2  0  0  0
  3  4  2  0  0  0
  4  5  1  0  0  0
  5  6  2  0  0  0
  6  7  1  0  0  0
  7  8  2  0  0  0
  8  9  1  0  0  0
  9 10  2  0  0  0
 10 11  1  0  0  0
 11 12  2  0  0  0
  8 15  1  0  0  0
 15 16  1  0  0  0
 16 17  1  0  0  0
 11  2  1  0  0  0
 17 15  1  0  0  0
 25 20  1  0  0  0
 10  5  1  0  0  0
  1 13  1  0  0  0
  1 14  1  0  0  0
 27 29  1  0  0  0
M  END
> <minimizedAffinity>
-5.51690

> <CNNscore>
0.3623233140

> <CNNaffinity>
5.5827584267

> <CNN_VS>
2.0227634907

> <CNNaffinity_variance>
0.7168337107

$$$$
[H]OC(=O)c1c([H])c([H])c(/C([H])=C(\[H])c2nc3c([H])c([H])c(C4([H])C([H])([H])C4([H])[H])c([H])c3c(=O)n2N([H])[H])c([H])c1[H]


 29 32  0  0  0  0  0  0  0  0999 V2000
    0.7834  -53.1729  -23.7047 N   0  0  0  0  0  0  0  0  0  0  0  0
    0.9016  -52.3769  -22.5834 N   0  0  0  0  0  0  0  0  0  0  0  0
    1.5931  -51.2562  -22.5665 C   0  0  0  0  0  0  0  0  0  0  0  0
    1.6294  -50.5515  -21.3703 N   0  0  0  0  0  0  0  0  0  0  0  0
    1.0033  -50.9667  -20.2759 C   0  0  0  0  0  0  0  0  0  0  0  0
    1.0417  -50.2617  -19.0852 C   0  0  0  0  0  0  0  0  0  0  0  0
    0.3697  -50.7466  -17.9832 C   0  0  0  0  0  0  0  0  0  0  0  0
   -0.3466  -51.9194  -18.0228 C   0  0  0  0  0  0  0  0  0  0  0  0
   -0.3749  -52.6100  -19.2165 C   0  0  0  0  0  0  0  0  0  0  0  0
    0.2884  -52.1454  -20.3304 C   0  0  0  0  0  0  0  0  0  0  0  0
    0.2212  -52.8787  -21.4879 C   0  0  0  0  0  0  0  0  0  0  0  0
   -0.4270  -53.9592  -21.5587 O   0  0  0  0  0  0  0  0  0  0  0  0
    0.0310  -53.1049  -24.4250 H   0  0  0  0  0  0  0  0  0  0  0  0
    1.5081  -53.9266  -23.8565 H   0  0  0  0  0  0  0  0  0  0  0  0
   -1.0558  -52.4235  -16.8455 C   0  0  0  0  0  0  0  0  0  0  0  0
   -1.9627  -51.5584  -16.0523 C   0  0  0  0  0  0  0  0  0  0  0  0
   -0.5696  -51.9167  -15.5226 C   0  0  0  0  0  0  0  0  0  0  0  0
    2.3149  -50.6994  -23.6844 C   0  0  0  0  0  0  0  0  0  0  0  0
    3.1818  -49.7453  -23.7562 C   0  0  0  0  0  0  0  0  0  0  0  0
    3.8277  -49.3057  -25.0178 C   0  0  0  0  0  0  0  0  0  0  0  0
    3.1880  -49.3125  -26.2090 C   0  0  0  0  0  0  0  0  0  0  0  0
    3.8538  -48.8843  -27.3679 C   0  0  0  0  0  0  0  0  0  0  0  0
    5.1520  -48.4620  -27.2765 C   0  0  0  0  0  0  0  0  0  0  0  0
    5.8315  -48.4429  -26.0791 C   0  0  0  0  0  0  0  0  0  0  0  0
    5.1577  -48.8651  -24.9701 C   0  0  0  0  0  0  0  0  0  0  0  0
    5.8386  -48.0164  -28.4939 C   0  0  0  0  0  0  0  0  0  0  0  0
    6.7326  -48.8395  -29.1519 O   0  0  0  0  0  0  0  0  0  0  0  0
    5.6245  -46.8714  -28.9627 O   0  0  0  0  0  0  0  0  0  0  0  0
    7.5905  -48.4726  -29.5269 H   0  0  0  0  0  0  0  0  0  0  0  0
  1  2  1  0  0  0
  2  3  1  0  0  0
  3 18  1  0  0  0
 18 19  2  0  0  0
 19 20  1  0  0  0
 20 21  2  0  0  0
 21 22  1  0  0  0
 22 23  2  0  0  0
 23 24  1  0  0  0
 24 25  2  0  0  0
 23 26  1  0  0  0
 26 27  1  0  0  0
 26 28  2  0  0  0
  3  4  2  0  0  0
  4  5  1  0  0  0
  5  6  2  0  0  0
  6  7  1  0  0  0
  7  8  2  0  0  0
  8  9  1  0  0  0
  9 10  2  0  0  0
 10 11  1  0  0  0
 11 12  2  0  0  0
  8 15  1  0  0  0
 15 16  1  0  0  0
 16 17  1  0  0  0
 11  2  1  0  0  0
 17 15  1  0  0  0
 25 20  1  0  0  0
 10  5  1  0  0  0
  1 13  1  0  0  0
  1 14  1  0  0  0
 27 29  1  0  0  0
M  END
> <minimizedAffinity>
-6.71333

> <CNNscore>
0.3373518884

> <CNNaffinity>
5.8733296394

> <CNN_VS>
1.9813787937

> <CNNaffinity_variance>
0.9511159658

$$$$
[H]OC(=O)c1c([H])c([H])c(/C([H])=C(\[H])c2nc3c([H])c([H])c(C4([H])C([H])([H])C4([H])[H])c([H])c3c(=O)n2N([H])[H])c([H])c1[H]


 29 32  0  0  0  0  0  0  0  0999 V2000
   -1.1987  -54.0276  -20.1276 N   0  0  0  0  0  0  0  0  0  0  0  0
   -0.5501  -52.8675  -19.7552 N   0  0  0  0  0  0  0  0  0  0  0  0
    0.1704  -52.1469  -20.5893 C   0  0  0  0  0  0  0  0  0  0  0  0
    0.7697  -51.0010  -20.0827 N   0  0  0  0  0  0  0  0  0  0  0  0
    0.6385  -50.6248  -18.8165 C   0  0  0  0  0  0  0  0  0  0  0  0
    1.2373  -49.4820  -18.3149 C   0  0  0  0  0  0  0  0  0  0  0  0
    1.0623  -49.1457  -16.9893 C   0  0  0  0  0  0  0  0  0  0  0  0
    0.3055  -49.9127  -16.1354 C   0  0  0  0  0  0  0  0  0  0  0  0
   -0.2844  -51.0481  -16.6506 C   0  0  0  0  0  0  0  0  0  0  0  0
   -0.1240  -51.4043  -17.9711 C   0  0  0  0  0  0  0  0  0  0  0  0
   -0.7369  -52.5457  -18.4224 C   0  0  0  0  0  0  0  0  0  0  0  0
   -1.4383  -53.2724  -17.6657 O   0  0  0  0  0  0  0  0  0  0  0  0
   -2.1781  -54.0922  -20.4826 H   0  0  0  0  0  0  0  0  0  0  0  0
   -0.6711  -54.9391  -20.0445 H   0  0  0  0  0  0  0  0  0  0  0  0
    0.1275  -49.5445  -14.7298 C   0  0  0  0  0  0  0  0  0  0  0  0
    1.0290  -50.0574  -13.6695 C   0  0  0  0  0  0  0  0  0  0  0  0
   -0.3852  -50.6266  -13.8302 C   0  0  0  0  0  0  0  0  0  0  0  0
    0.3894  -52.4468  -21.9832 C   0  0  0  0  0  0  0  0  0  0  0  0
   -0.3906  -52.3727  -23.0094 C   0  0  0  0  0  0  0  0  0  0  0  0
    0.0198  -52.7306  -24.3898 C   0  0  0  0  0  0  0  0  0  0  0  0
   -0.1959  -53.9539  -24.9240 C   0  0  0  0  0  0  0  0  0  0  0  0
    0.2162  -54.2312  -26.2366 C   0  0  0  0  0  0  0  0  0  0  0  0
    0.8356  -53.2523  -26.9646 C   0  0  0  0  0  0  0  0  0  0  0  0
    1.0700  -51.9968  -26.4500 C   0  0  0  0  0  0  0  0  0  0  0  0
    0.6580  -51.7573  -25.1713 C   0  0  0  0  0  0  0  0  0  0  0  0
    1.2623  -53.5527  -28.3357 C   0  0  0  0  0  0  0  0  0  0  0  0
    0.7493  -52.8551  -29.4125 O   0  0  0  0  0  0  0  0  0  0  0  0
    2.1071  -54.4552  -28.5561 O   0  0  0  0  0  0  0  0  0  0  0  0
    0.5078  -53.3295  -30.2657 H   0  0  0  0  0  0  0  0  0  0  0  0
  1  2  1  0  0  0
  2  3  1  0  0  0
  3 18  1  0  0  0
 18 19  2  0  0  0
 19 20  1  0  0  0
 20 21  2  0  0  0
 21 22  1  0  0  0
 22 23  2  0  0  0
 23 24  1  0  0  0
 24 25  2  0  0  0
 23 26  1  0  0  0
 26 27  1  0  0  0
 26 28  2  0  0  0
  3  4  2  0  0  0
  4  5  1  0  0  0
  5  6  2  0  0  0
  6  7  1  0  0  0
  7  8  2  0  0  0
  8  9  1  0  0  0
  9 10  2  0  0  0
 10 11  1  0  0  0
 11 12  2  0  0  0
  8 15  1  0  0  0
 15 16  1  0  0  0
 16 17  1  0  0  0
 11  2  1  0  0  0
 17 15  1  0  0  0
 25 20  1  0  0  0
 10  5  1  0  0  0
  1 13  1  0  0  0
  1 14  1  0  0  0
 27 29  1  0  0  0
M  END
> <minimizedAffinity>
-8.74887

> <CNNscore>
0.3347685039

> <CNNaffinity>
6.1855993271

> <CNN_VS>
2.0707437992

> <CNNaffinity_variance>
0.5855553746

$$$$
[H]OC(=O)c1c([H])c([H])c(/C([H])=C(\[H])c2nc3c([H])c([H])c(C4([H])C([H])([H])C4([H])[H])c([H])c3c(=O)n2N([H])[H])c([H])c1[H]


 29 32  0  0  0  0  0  0  0  0999 V2000
    1.8517  -49.6647  -22.2829 N   0  0  0  0  0  0  0  0  0  0  0  0
    1.1689  -50.8100  -22.6393 N   0  0  0  0  0  0  0  0  0  0  0  0
    0.4016  -51.4793  -21.8041 C   0  0  0  0  0  0  0  0  0  0  0  0
   -0.2281  -52.6162  -22.2938 N   0  0  0  0  0  0  0  0  0  0  0  0
   -0.0806  -53.0329  -23.5455 C   0  0  0  0  0  0  0  0  0  0  0  0
   -0.7098  -54.1666  -24.0303 C   0  0  0  0  0  0  0  0  0  0  0  0
   -0.5156  -54.5469  -25.3412 C   0  0  0  0  0  0  0  0  0  0  0  0
    0.2901  -53.8332  -26.1966 C   0  0  0  0  0  0  0  0  0  0  0  0
    0.9098  -52.7062  -25.6982 C   0  0  0  0  0  0  0  0  0  0  0  0
    0.7309  -52.3068  -24.3925 C   0  0  0  0  0  0  0  0  0  0  0  0
    1.3754  -51.1764  -23.9576 C   0  0  0  0  0  0  0  0  0  0  0  0
    2.1219  -50.4982  -24.7162 O   0  0  0  0  0  0  0  0  0  0  0  0
    1.4949  -48.6880  -22.3742 H   0  0  0  0  0  0  0  0  0  0  0  0
    2.8256  -49.7708  -21.8876 H   0  0  0  0  0  0  0  0  0  0  0  0
    0.4880  -54.2478  -27.5866 C   0  0  0  0  0  0  0  0  0  0  0  0
    1.5420  -53.6439  -28.4375 C   0  0  0  0  0  0  0  0  0  0  0  0
    0.0712  -53.2575  -28.6299 C   0  0  0  0  0  0  0  0  0  0  0  0
    0.1602  -51.1316  -20.4251 C   0  0  0  0  0  0  0  0  0  0  0  0
    0.3313  -51.7947  -19.3306 C   0  0  0  0  0  0  0  0  0  0  0  0
    0.0204  -51.2614  -17.9812 C   0  0  0  0  0  0  0  0  0  0  0  0
    0.4554  -50.0550  -17.5526 C   0  0  0  0  0  0  0  0  0  0  0  0
    0.1276  -49.6059  -16.2639 C   0  0  0  0  0  0  0  0  0  0  0  0
   -0.6341  -50.4010  -15.4517 C   0  0  0  0  0  0  0  0  0  0  0  0
   -1.0926  -51.6341  -15.8580 C   0  0  0  0  0  0  0  0  0  0  0  0
   -0.7575  -52.0433  -17.1159 C   0  0  0  0  0  0  0  0  0  0  0  0
   -0.9711  -49.9220  -14.1066 C   0  0  0  0  0  0  0  0  0  0  0  0
   -0.5539  -48.6809  -13.6649 O   0  0  0  0  0  0  0  0  0  0  0  0
   -1.6493  -50.6364  -13.3279 O   0  0  0  0  0  0  0  0  0  0  0  0
   -0.2162  -48.5552  -12.7261 H   0  0  0  0  0  0  0  0  0  0  0  0
  1  2  1  0  0  0
  2  3  1  0  0  0
  3 18  1  0  0  0
 18 19  2  0  0  0
 19 20  1  0  0  0
 20 21  2  0  0  0
 21 22  1  0  0  0
 22 23  2  0  0  0
 23 24  1  0  0  0
 24 25  2  0  0  0
 23 26  1  0  0  0
 26 27  1  0  0  0
 26 28  2  0  0  0
  3  4  2  0  0  0
  4  5  1  0  0  0
  5  6  2  0  0  0
  6  7  1  0  0  0
  7  8  2  0  0  0
  8  9  1  0  0  0
  9 10  2  0  0  0
 10 11  1  0  0  0
 11 12  2  0  0  0
  8 15  1  0  0  0
 15 16  1  0  0  0
 16 17  1  0  0  0
 11  2  1  0  0  0
 17 15  1  0  0  0
 25 20  1  0  0  0
 10  5  1  0  0  0
  1 13  1  0  0  0
  1 14  1  0  0  0
 27 29  1  0  0  0
M  END
> <minimizedAffinity>
-7.78923

> <CNNscore>
0.2892139852

> <CNNaffinity>
6.1475062370

> <CNN_VS>
1.7779448032

> <CNNaffinity_variance>
0.8672685623

$$$$
[H]N=C(N([H])[H])N([H])C([H])([H])C([H])([H])C([H])([H])[C@@]([H])(C([H])=O)N([H])C(=O)[C@@]1([H])N(C(=O)[C@@]([H])(N([H])S(=O)(=O)c2c([H])c([H])c3c([H])c([H])c([H])c([H])c3c2[H])C([H])([H])C([H])(C([H])([H])[H])C([H])([H])[H])C([H])([H])C([H])([H])C1([H])[H]


 45 47  0  0  0  0  0  0  0  0999 V2000
    2.4627  -51.1066  -20.2035 C   0  0  0  0  0  0  0  0  0  0  0  0
    3.3121  -52.0715  -19.8062 O   0  0  0  0  0  0  0  0  0  0  0  0
    3.1003  -49.8744  -20.2480 N   0  0  0  0  0  0  0  0  0  0  0  0
    4.5756  -49.8081  -19.9204 C   0  0  0  0  0  0  0  0  0  0  0  0
    4.7829  -48.4770  -19.2659 C   0  0  0  0  0  0  0  0  0  0  0  0
    3.3656  -47.9074  -19.1012 C   0  0  0  0  0  0  0  0  0  0  0  0
    2.7751  -48.5042  -20.4144 C   0  0  0  0  0  0  0  0  0  0  0  0
    3.4224  -47.7645  -21.5203 C   0  0  0  0  0  0  0  0  0  0  0  0
    3.5818  -46.5372  -21.4250 O   0  0  0  0  0  0  0  0  0  0  0  0
    3.8335  -48.5138  -22.6483 N   0  0  0  0  0  0  0  0  0  0  0  0
    3.6863  -49.5270  -22.6872 H   0  0  0  0  0  0  0  0  0  0  0  0
    4.4889  -47.9141  -23.8268 C   0  0  0  0  0  0  0  0  0  0  0  0
    3.8753  -48.5615  -25.0121 C   0  0  0  0  0  0  0  0  0  0  0  0
    3.2972  -49.6038  -24.8991 O   0  0  0  0  0  0  0  0  0  0  0  0
    5.9341  -48.2024  -23.8374 C   0  0  0  0  0  0  0  0  0  0  0  0
    6.3916  -49.3041  -22.9781 C   0  0  0  0  0  0  0  0  0  0  0  0
    7.0842  -50.4187  -23.6333 C   0  0  0  0  0  0  0  0  0  0  0  0
    6.6354  -51.7466  -23.5598 N   0  0  0  0  0  0  0  0  0  0  0  0
    7.1307  -52.6268  -23.3321 H   0  0  0  0  0  0  0  0  0  0  0  0
    5.2415  -51.9734  -23.8946 C   0  0  0  0  0  0  0  0  0  0  0  0
    4.9141  -52.2701  -25.2249 N   0  0  0  0  0  0  0  0  0  0  0  0
    4.3581  -51.8999  -22.9877 N   0  0  0  0  0  0  0  0  0  0  0  0
    5.1199  -51.5694  -25.9894 H   0  0  0  0  0  0  0  0  0  0  0  0
    4.4633  -53.1938  -25.4457 H   0  0  0  0  0  0  0  0  0  0  0  0
    4.5365  -51.6852  -21.9861 H   0  0  0  0  0  0  0  0  0  0  0  0
    1.1193  -51.6596  -20.4458 C   0  0  0  0  0  0  0  0  0  0  0  0
    1.4460  -52.5770  -21.6080 N   0  0  0  0  0  0  0  0  0  0  0  0
    2.1072  -52.0700  -22.1988 H   0  0  0  0  0  0  0  0  0  0  0  0
    0.0676  -52.9702  -22.5094 S   0  0  0  0  0  0  0  0  0  0  0  0
   -0.3452  -54.3910  -22.1421 O   0  0  0  0  0  0  0  0  0  0  0  0
   -1.0949  -52.0253  -22.2021 O   0  0  0  0  0  0  0  0  0  0  0  0
    0.2497  -52.9403  -24.2378 C   0  0  0  0  0  0  0  0  0  0  0  0
    1.4563  -53.1031  -24.8938 C   0  0  0  0  0  0  0  0  0  0  0  0
    1.5680  -53.0836  -26.2683 C   0  0  0  0  0  0  0  0  0  0  0  0
    0.4490  -52.8962  -27.0613 C   0  0  0  0  0  0  0  0  0  0  0  0
    0.5577  -52.8753  -28.4491 C   0  0  0  0  0  0  0  0  0  0  0  0
   -0.5827  -52.6851  -29.1881 C   0  0  0  0  0  0  0  0  0  0  0  0
   -1.8396  -52.5130  -28.6068 C   0  0  0  0  0  0  0  0  0  0  0  0
   -1.8725  -52.5450  -27.2316 C   0  0  0  0  0  0  0  0  0  0  0  0
   -0.7634  -52.7323  -26.4315 C   0  0  0  0  0  0  0  0  0  0  0  0
   -0.8537  -52.7551  -25.0505 C   0  0  0  0  0  0  0  0  0  0  0  0
    0.4687  -52.4428  -19.3884 C   0  0  0  0  0  0  0  0  0  0  0  0
   -1.0465  -52.6095  -17.3754 C   0  0  0  0  0  0  0  0  0  0  0  0
   -0.1473  -51.7238  -18.2550 C   0  0  0  0  0  0  0  0  0  0  0  0
    0.4502  -50.6585  -17.4783 C   0  0  0  0  0  0  0  0  0  0  0  0
 43 44  1  0  0  0
 44 45  1  0  0  0
 44 42  1  0  0  0
 42 26  1  0  0  0
 26 27  1  0  0  0
 27 29  1  0  0  0
 29 30  2  0  0  0
 29 31  2  0  0  0
 29 32  1  0  0  0
 32 33  2  0  0  0
 33 34  1  0  0  0
 34 35  2  0  0  0
 35 36  1  0  0  0
 36 37  2  0  0  0
 37 38  1  0  0  0
 38 39  2  0  0  0
 39 40  1  0  0  0
 40 41  2  0  0  0
 26  1  1  0  0  0
  1  2  2  0  0  0
  1  3  1  0  0  0
  3  4  1  0  0  0
  4  5  1  0  0  0
  5  6  1  0  0  0
  6  7  1  0  0  0
  7  8  1  0  0  0
  8  9  2  0  0  0
  8 10  1  0  0  0
 10 12  1  0  0  0
 12 15  1  0  0  0
 15 16  1  0  0  0
 16 17  1  0  0  0
 17 18  1  0  0  0
 18 20  1  0  0  0
 20 21  1  0  0  0
 20 22  2  0  0  0
 12 13  1  0  0  0
 13 14  2  0  0  0
 41 32  1  0  0  0
  7  3  1  0  0  0
 40 35  1  0  0  0
 27 28  1  0  0  0
 10 11  1  0  0  0
 18 19  1  0  0  0
 21 23  1  0  0  0
 21 24  1  0  0  0
 22 25  1  0  0  0
M  END
> <minimizedAffinity>
-7.50266

> <CNNscore>
0.4820759892

> <CNNaffinity>
7.0803756714

> <CNN_VS>
3.4132790565

> <CNNaffinity_variance>
0.7435818911

$$$$
[H]N=C(N([H])[H])N([H])C([H])([H])C([H])([H])C([H])([H])[C@@]([H])(C([H])=O)N([H])C(=O)[C@@]1([H])N(C(=O)[C@@]([H])(N([H])S(=O)(=O)c2c([H])c([H])c3c([H])c([H])c([H])c([H])c3c2[H])C([H])([H])C([H])(C([H])([H])[H])C([H])([H])[H])C([H])([H])C([H])([H])C1([H])[H]


 45 47  0  0  0  0  0  0  0  0999 V2000
    1.1707  -49.9640  -20.0482 C   0  0  0  0  0  0  0  0  0  0  0  0
    0.8195  -49.1449  -21.0562 O   0  0  0  0  0  0  0  0  0  0  0  0
    2.1085  -49.3585  -19.2231 N   0  0  0  0  0  0  0  0  0  0  0  0
    2.5299  -47.9371  -19.5238 C   0  0  0  0  0  0  0  0  0  0  0  0
    3.9663  -47.8472  -19.1097 C   0  0  0  0  0  0  0  0  0  0  0  0
    4.3481  -49.2885  -18.7394 C   0  0  0  0  0  0  0  0  0  0  0  0
    2.9661  -49.6967  -18.1456 C   0  0  0  0  0  0  0  0  0  0  0  0
    2.8296  -48.9378  -16.8828 C   0  0  0  0  0  0  0  0  0  0  0  0
    1.7066  -48.5576  -16.5155 O   0  0  0  0  0  0  0  0  0  0  0  0
    4.0122  -48.6835  -16.1482 N   0  0  0  0  0  0  0  0  0  0  0  0
    4.9207  -49.0172  -16.4843 H   0  0  0  0  0  0  0  0  0  0  0  0
    4.0326  -47.9382  -14.8745 C   0  0  0  0  0  0  0  0  0  0  0  0
    5.1694  -46.9902  -14.9713 C   0  0  0  0  0  0  0  0  0  0  0  0
    5.5813  -46.6488  -16.0424 O   0  0  0  0  0  0  0  0  0  0  0  0
    4.2761  -48.8389  -13.7337 C   0  0  0  0  0  0  0  0  0  0  0  0
    3.2028  -48.9397  -12.7340 C   0  0  0  0  0  0  0  0  0  0  0  0
    2.0646  -49.8050  -13.0612 C   0  0  0  0  0  0  0  0  0  0  0  0
    2.0767  -50.7112  -14.1331 N   0  0  0  0  0  0  0  0  0  0  0  0
    1.9768  -50.5683  -15.1536 H   0  0  0  0  0  0  0  0  0  0  0  0
    2.2118  -52.1142  -13.7871 C   0  0  0  0  0  0  0  0  0  0  0  0
    3.4823  -52.7013  -13.8630 N   0  0  0  0  0  0  0  0  0  0  0  0
    1.1898  -52.7732  -13.4267 N   0  0  0  0  0  0  0  0  0  0  0  0
    3.9903  -52.7455  -14.7892 H   0  0  0  0  0  0  0  0  0  0  0  0
    3.9162  -53.0939  -12.9896 H   0  0  0  0  0  0  0  0  0  0  0  0
    0.2238  -52.3962  -13.3498 H   0  0  0  0  0  0  0  0  0  0  0  0
    0.4641  -51.2522  -20.1506 C   0  0  0  0  0  0  0  0  0  0  0  0
    1.0927  -51.7667  -21.4310 N   0  0  0  0  0  0  0  0  0  0  0  0
    1.3643  -50.9430  -21.9704 H   0  0  0  0  0  0  0  0  0  0  0  0
    0.0094  -52.7032  -22.3346 S   0  0  0  0  0  0  0  0  0  0  0  0
    0.0903  -54.1381  -21.8262 O   0  0  0  0  0  0  0  0  0  0  0  0
   -1.4289  -52.2072  -22.1802 O   0  0  0  0  0  0  0  0  0  0  0  0
    0.2995  -52.7694  -24.0472 C   0  0  0  0  0  0  0  0  0  0  0  0
    1.5400  -52.9936  -24.6159 C   0  0  0  0  0  0  0  0  0  0  0  0
    1.7375  -53.0498  -25.9797 C   0  0  0  0  0  0  0  0  0  0  0  0
    0.6753  -52.8798  -26.8508 C   0  0  0  0  0  0  0  0  0  0  0  0
    0.8708  -52.9351  -28.2281 C   0  0  0  0  0  0  0  0  0  0  0  0
   -0.2162  -52.7591  -29.0470 C   0  0  0  0  0  0  0  0  0  0  0  0
   -1.5020  -52.5284  -28.5563 C   0  0  0  0  0  0  0  0  0  0  0  0
   -1.6213  -52.4865  -27.1862 C   0  0  0  0  0  0  0  0  0  0  0  0
   -0.5694  -52.6557  -26.3087 C   0  0  0  0  0  0  0  0  0  0  0  0
   -0.7461  -52.6030  -24.9369 C   0  0  0  0  0  0  0  0  0  0  0  0
    0.6487  -52.2534  -19.0931 C   0  0  0  0  0  0  0  0  0  0  0  0
   -0.4736  -51.2144  -17.0839 C   0  0  0  0  0  0  0  0  0  0  0  0
   -0.4023  -52.3967  -18.0656 C   0  0  0  0  0  0  0  0  0  0  0  0
   -1.7036  -53.0068  -18.2378 C   0  0  0  0  0  0  0  0  0  0  0  0
 43 44  1  0  0  0
 44 45  1  0  0  0
 44 42  1  0  0  0
 42 26  1  0  0  0
 26 27  1  0  0  0
 27 29  1  0  0  0
 29 30  2  0  0  0
 29 31  2  0  0  0
 29 32  1  0  0  0
 32 33  2  0  0  0
 33 34  1  0  0  0
 34 35  2  0  0  0
 35 36  1  0  0  0
 36 37  2  0  0  0
 37 38  1  0  0  0
 38 39  2  0  0  0
 39 40  1  0  0  0
 40 41  2  0  0  0
 26  1  1  0  0  0
  1  2  2  0  0  0
  1  3  1  0  0  0
  3  4  1  0  0  0
  4  5  1  0  0  0
  5  6  1  0  0  0
  6  7  1  0  0  0
  7  8  1  0  0  0
  8  9  2  0  0  0
  8 10  1  0  0  0
 10 12  1  0  0  0
 12 15  1  0  0  0
 15 16  1  0  0  0
 16 17  1  0  0  0
 17 18  1  0  0  0
 18 20  1  0  0  0
 20 21  1  0  0  0
 20 22  2  0  0  0
 12 13  1  0  0  0
 13 14  2  0  0  0
 41 32  1  0  0  0
  7  3  1  0  0  0
 40 35  1  0  0  0
 27 28  1  0  0  0
 10 11  1  0  0  0
 18 19  1  0  0  0
 21 23  1  0  0  0
 21 24  1  0  0  0
 22 25  1  0  0  0
M  END
> <minimizedAffinity>
-6.91097

> <CNNscore>
0.1778662354

> <CNNaffinity>
6.2506499290

> <CNN_VS>
1.1117795706

> <CNNaffinity_variance>
0.1029781550

$$$$
[H]N=C(N([H])[H])N([H])C([H])([H])C([H])([H])C([H])([H])[C@@]([H])(C([H])=O)N([H])C(=O)[C@@]1([H])N(C(=O)[C@@]([H])(N([H])S(=O)(=O)c2c([H])c([H])c3c([H])c([H])c([H])c([H])c3c2[H])C([H])([H])C([H])(C([H])([H])[H])C([H])([H])[H])C([H])([H])C([H])([H])C1([H])[H]


 45 47  0  0  0  0  0  0  0  0999 V2000
    1.1937  -50.0141  -20.9185 C   0  0  0  0  0  0  0  0  0  0  0  0
    0.8740  -48.7554  -21.2702 O   0  0  0  0  0  0  0  0  0  0  0  0
    2.1167  -50.0184  -19.8817 N   0  0  0  0  0  0  0  0  0  0  0  0
    2.5575  -48.6948  -19.2967 C   0  0  0  0  0  0  0  0  0  0  0  0
    3.9843  -48.8916  -18.8864 C   0  0  0  0  0  0  0  0  0  0  0  0
    4.3445  -50.2887  -19.4145 C   0  0  0  0  0  0  0  0  0  0  0  0
    2.9451  -50.9362  -19.1873 C   0  0  0  0  0  0  0  0  0  0  0  0
    2.7850  -51.0464  -17.7205 C   0  0  0  0  0  0  0  0  0  0  0  0
    3.7708  -51.3141  -17.0156 O   0  0  0  0  0  0  0  0  0  0  0  0
    1.4893  -50.8346  -17.1920 N   0  0  0  0  0  0  0  0  0  0  0  0
    0.7012  -50.6125  -17.8080 H   0  0  0  0  0  0  0  0  0  0  0  0
    1.1766  -50.9140  -15.7519 C   0  0  0  0  0  0  0  0  0  0  0  0
   -0.2220  -51.3999  -15.6613 C   0  0  0  0  0  0  0  0  0  0  0  0
   -0.7750  -51.4535  -14.6007 O   0  0  0  0  0  0  0  0  0  0  0  0
    1.2479  -49.5860  -15.1169 C   0  0  0  0  0  0  0  0  0  0  0  0
    2.4335  -49.3144  -14.2910 C   0  0  0  0  0  0  0  0  0  0  0  0
    2.8026  -50.3291  -13.2983 C   0  0  0  0  0  0  0  0  0  0  0  0
    3.9850  -51.0814  -13.3776 N   0  0  0  0  0  0  0  0  0  0  0  0
    4.9805  -50.8040  -13.3143 H   0  0  0  0  0  0  0  0  0  0  0  0
    3.8273  -52.5014  -13.6327 C   0  0  0  0  0  0  0  0  0  0  0  0
    3.0543  -53.2582  -12.7414 N   0  0  0  0  0  0  0  0  0  0  0  0
    4.3851  -53.0231  -14.6453 N   0  0  0  0  0  0  0  0  0  0  0  0
    3.3428  -53.3387  -11.7274 H   0  0  0  0  0  0  0  0  0  0  0  0
    2.1906  -53.7404  -13.0972 H   0  0  0  0  0  0  0  0  0  0  0  0
    4.9684  -52.5171  -15.3417 H   0  0  0  0  0  0  0  0  0  0  0  0
    0.4786  -50.9897  -21.7589 C   0  0  0  0  0  0  0  0  0  0  0  0
    1.6375  -51.9074  -22.0961 N   0  0  0  0  0  0  0  0  0  0  0  0
    2.3900  -51.6725  -21.4467 H   0  0  0  0  0  0  0  0  0  0  0  0
    2.1740  -51.6889  -23.6871 S   0  0  0  0  0  0  0  0  0  0  0  0
    2.6507  -50.2478  -23.8293 O   0  0  0  0  0  0  0  0  0  0  0  0
    3.3344  -52.6261  -24.0241 O   0  0  0  0  0  0  0  0  0  0  0  0
    0.9909  -51.9427  -24.9351 C   0  0  0  0  0  0  0  0  0  0  0  0
   -0.3714  -51.7854  -24.7562 C   0  0  0  0  0  0  0  0  0  0  0  0
   -1.2859  -51.9854  -25.7690 C   0  0  0  0  0  0  0  0  0  0  0  0
   -0.8634  -52.3598  -27.0330 C   0  0  0  0  0  0  0  0  0  0  0  0
   -1.7835  -52.5632  -28.0578 C   0  0  0  0  0  0  0  0  0  0  0  0
   -1.3114  -52.9344  -29.2916 C   0  0  0  0  0  0  0  0  0  0  0  0
    0.0464  -53.1147  -29.5578 C   0  0  0  0  0  0  0  0  0  0  0  0
    0.8981  -52.8966  -28.4994 C   0  0  0  0  0  0  0  0  0  0  0  0
    0.4878  -52.5221  -27.2358 C   0  0  0  0  0  0  0  0  0  0  0  0
    1.3891  -52.3165  -26.2056 C   0  0  0  0  0  0  0  0  0  0  0  0
   -0.6028  -51.7855  -21.1655 C   0  0  0  0  0  0  0  0  0  0  0  0
   -0.5109  -54.1839  -21.9496 C   0  0  0  0  0  0  0  0  0  0  0  0
   -0.3250  -53.1872  -20.7927 C   0  0  0  0  0  0  0  0  0  0  0  0
    0.6839  -53.6522  -19.8647 C   0  0  0  0  0  0  0  0  0  0  0  0
 43 44  1  0  0  0
 44 45  1  0  0  0
 44 42  1  0  0  0
 42 26  1  0  0  0
 26 27  1  0  0  0
 27 29  1  0  0  0
 29 30  2  0  0  0
 29 31  2  0  0  0
 29 32  1  0  0  0
 32 33  2  0  0  0
 33 34  1  0  0  0
 34 35  2  0  0  0
 35 36  1  0  0  0
 36 37  2  0  0  0
 37 38  1  0  0  0
 38 39  2  0  0  0
 39 40  1  0  0  0
 40 41  2  0  0  0
 26  1  1  0  0  0
  1  2  2  0  0  0
  1  3  1  0  0  0
  3  4  1  0  0  0
  4  5  1  0  0  0
  5  6  1  0  0  0
  6  7  1  0  0  0
  7  8  1  0  0  0
  8  9  2  0  0  0
  8 10  1  0  0  0
 10 12  1  0  0  0
 12 15  1  0  0  0
 15 16  1  0  0  0
 16 17  1  0  0  0
 17 18  1  0  0  0
 18 20  1  0  0  0
 20 21  1  0  0  0
 20 22  2  0  0  0
 12 13  1  0  0  0
 13 14  2  0  0  0
 41 32  1  0  0  0
  7  3  1  0  0  0
 40 35  1  0  0  0
 27 28  1  0  0  0
 10 11  1  0  0  0
 18 19  1  0  0  0
 21 23  1  0  0  0
 21 24  1  0  0  0
 22 25  1  0  0  0
M  END
> <minimizedAffinity>
-7.73212

> <CNNscore>
0.1610348076

> <CNNaffinity>
6.1880631447

> <CNN_VS>
0.9964935780

> <CNNaffinity_variance>
0.6345952749

$$$$
[H]N=C(N([H])[H])N([H])C([H])([H])C([H])([H])C([H])([H])[C@@]([H])(C([H])=O)N([H])C(=O)[C@@]1([H])N(C(=O)[C@@]([H])(N([H])S(=O)(=O)c2c([H])c([H])c3c([H])c([H])c([H])c([H])c3c2[H])C([H])([H])C([H])(C([H])([H])[H])C([H])([H])[H])C([H])([H])C([H])([H])C1([H])[H]


 45 47  0  0  0  0  0  0  0  0999 V2000
    2.0833  -50.1877  -21.0934 C   0  0  0  0  0  0  0  0  0  0  0  0
    1.9186  -49.8781  -22.3924 O   0  0  0  0  0  0  0  0  0  0  0  0
    3.1063  -49.4362  -20.5318 N   0  0  0  0  0  0  0  0  0  0  0  0
    3.8043  -48.4043  -21.3899 C   0  0  0  0  0  0  0  0  0  0  0  0
    5.2225  -48.3743  -20.9096 C   0  0  0  0  0  0  0  0  0  0  0  0
    5.3066  -49.5250  -19.8951 C   0  0  0  0  0  0  0  0  0  0  0  0
    3.8606  -49.3785  -19.3324 C   0  0  0  0  0  0  0  0  0  0  0  0
    3.8525  -48.1134  -18.5653 C   0  0  0  0  0  0  0  0  0  0  0  0
    2.8399  -47.3958  -18.5788 O   0  0  0  0  0  0  0  0  0  0  0  0
    5.0244  -47.7860  -17.8425 N   0  0  0  0  0  0  0  0  0  0  0  0
    5.8391  -48.4072  -17.8546 H   0  0  0  0  0  0  0  0  0  0  0  0
    5.1644  -46.5583  -17.0355 C   0  0  0  0  0  0  0  0  0  0  0  0
    6.5871  -46.1534  -17.1469 C   0  0  0  0  0  0  0  0  0  0  0  0
    7.4375  -46.9777  -17.3227 O   0  0  0  0  0  0  0  0  0  0  0  0
    4.8660  -46.8168  -15.6156 C   0  0  0  0  0  0  0  0  0  0  0  0
    4.0583  -45.8054  -14.9183 C   0  0  0  0  0  0  0  0  0  0  0  0
    2.6670  -46.1557  -14.6138 C   0  0  0  0  0  0  0  0  0  0  0  0
    1.7456  -46.5506  -15.5964 N   0  0  0  0  0  0  0  0  0  0  0  0
    1.4047  -46.0726  -16.4492 H   0  0  0  0  0  0  0  0  0  0  0  0
    1.1043  -47.8371  -15.3962 C   0  0  0  0  0  0  0  0  0  0  0  0
    1.7569  -48.7926  -14.6050 N   0  0  0  0  0  0  0  0  0  0  0  0
   -0.0206  -48.0684  -15.9343 N   0  0  0  0  0  0  0  0  0  0  0  0
    2.7040  -49.1623  -14.8951 H   0  0  0  0  0  0  0  0  0  0  0  0
    1.2906  -49.1320  -13.7260 H   0  0  0  0  0  0  0  0  0  0  0  0
   -0.5542  -47.4031  -16.5293 H   0  0  0  0  0  0  0  0  0  0  0  0
    1.1394  -51.2414  -20.6831 C   0  0  0  0  0  0  0  0  0  0  0  0
    1.5312  -52.3132  -21.6815 N   0  0  0  0  0  0  0  0  0  0  0  0
    2.1885  -51.8769  -22.3302 H   0  0  0  0  0  0  0  0  0  0  0  0
    0.1931  -52.8974  -22.5389 S   0  0  0  0  0  0  0  0  0  0  0  0
   -0.0318  -54.3483  -22.1284 O   0  0  0  0  0  0  0  0  0  0  0  0
   -1.0709  -52.0960  -22.2249 O   0  0  0  0  0  0  0  0  0  0  0  0
    0.3323  -52.8907  -24.2715 C   0  0  0  0  0  0  0  0  0  0  0  0
    1.5219  -53.0654  -24.9550 C   0  0  0  0  0  0  0  0  0  0  0  0
    1.5995  -53.0642  -26.3320 C   0  0  0  0  0  0  0  0  0  0  0  0
    0.4616  -52.8839  -27.0994 C   0  0  0  0  0  0  0  0  0  0  0  0
    0.5360  -52.8813  -28.4896 C   0  0  0  0  0  0  0  0  0  0  0  0
   -0.6219  -52.6975  -29.2027 C   0  0  0  0  0  0  0  0  0  0  0  0
   -1.8635  -52.5142  -28.5927 C   0  0  0  0  0  0  0  0  0  0  0  0
   -1.8624  -52.5281  -27.2168 C   0  0  0  0  0  0  0  0  0  0  0  0
   -0.7343  -52.7083  -26.4420 C   0  0  0  0  0  0  0  0  0  0  0  0
   -0.7904  -52.7128  -25.0590 C   0  0  0  0  0  0  0  0  0  0  0  0
    1.2337  -51.7954  -19.3271 C   0  0  0  0  0  0  0  0  0  0  0  0
   -0.9022  -53.0090  -18.7433 C   0  0  0  0  0  0  0  0  0  0  0  0
    0.0218  -51.8068  -18.4833 C   0  0  0  0  0  0  0  0  0  0  0  0
   -0.0808  -51.3615  -17.1098 C   0  0  0  0  0  0  0  0  0  0  0  0
 43 44  1  0  0  0
 44 45  1  0  0  0
 44 42  1  0  0  0
 42 26  1  0  0  0
 26 27  1  0  0  0
 27 29  1  0  0  0
 29 30  2  0  0  0
 29 31  2  0  0  0
 29 32  1  0  0  0
 32 33  2  0  0  0
 33 34  1  0  0  0
 34 35  2  0  0  0
 35 36  1  0  0  0
 36 37  2  0  0  0
 37 38  1  0  0  0
 38 39  2  0  0  0
 39 40  1  0  0  0
 40 41  2  0  0  0
 26  1  1  0  0  0
  1  2  2  0  0  0
  1  3  1  0  0  0
  3  4  1  0  0  0
  4  5  1  0  0  0
  5  6  1  0  0  0
  6  7  1  0  0  0
  7  8  1  0  0  0
  8  9  2  0  0  0
  8 10  1  0  0  0
 10 12  1  0  0  0
 12 15  1  0  0  0
 15 16  1  0  0  0
 16 17  1  0  0  0
 17 18  1  0  0  0
 18 20  1  0  0  0
 20 21  1  0  0  0
 20 22  2  0  0  0
 12 13  1  0  0  0
 13 14  2  0  0  0
 41 32  1  0  0  0
  7  3  1  0  0  0
 40 35  1  0  0  0
 27 28  1  0  0  0
 10 11  1  0  0  0
 18 19  1  0  0  0
 21 23  1  0  0  0
 21 24  1  0  0  0
 22 25  1  0  0  0
M  END
> <minimizedAffinity>
-6.43893

> <CNNscore>
0.1416582018

> <CNNaffinity>
6.2785816193

> <CNN_VS>
0.8894125819

> <CNNaffinity_variance>
0.0976227522

$$$$
[H]N=C(N([H])[H])N([H])C([H])([H])C([H])([H])C([H])([H])[C@@]([H])(C([H])=O)N([H])C(=O)[C@@]1([H])N(C(=O)[C@@]([H])(N([H])S(=O)(=O)c2c([H])c([H])c3c([H])c([H])c([H])c([H])c3c2[H])C([H])([H])C([H])(C([H])([H])[H])C([H])([H])[H])C([H])([H])C([H])([H])C1([H])[H]


 45 47  0  0  0  0  0  0  0  0999 V2000
    2.2371  -51.0769  -20.4796 C   0  0  0  0  0  0  0  0  0  0  0  0
    2.7656  -52.2664  -20.1387 O   0  0  0  0  0  0  0  0  0  0  0  0
    2.7627  -50.0594  -19.6952 N   0  0  0  0  0  0  0  0  0  0  0  0
    3.8263  -50.4040  -18.6762 C   0  0  0  0  0  0  0  0  0  0  0  0
    3.6102  -49.4596  -17.5341 C   0  0  0  0  0  0  0  0  0  0  0  0
    2.3119  -48.7195  -17.8908 C   0  0  0  0  0  0  0  0  0  0  0  0
    2.5396  -48.6839  -19.4322 C   0  0  0  0  0  0  0  0  0  0  0  0
    3.6594  -47.7425  -19.6530 C   0  0  0  0  0  0  0  0  0  0  0  0
    3.7948  -46.7651  -18.9000 O   0  0  0  0  0  0  0  0  0  0  0  0
    4.5328  -48.0155  -20.7326 N   0  0  0  0  0  0  0  0  0  0  0  0
    4.3884  -48.8354  -21.3299 H   0  0  0  0  0  0  0  0  0  0  0  0
    5.6897  -47.1660  -21.0762 C   0  0  0  0  0  0  0  0  0  0  0  0
    5.5424  -46.8332  -22.5142 C   0  0  0  0  0  0  0  0  0  0  0  0
    5.8827  -47.6166  -23.3532 O   0  0  0  0  0  0  0  0  0  0  0  0
    6.9581  -47.8947  -20.8967 C   0  0  0  0  0  0  0  0  0  0  0  0
    6.8555  -49.3058  -20.4972 C   0  0  0  0  0  0  0  0  0  0  0  0
    7.4029  -50.3033  -21.4227 C   0  0  0  0  0  0  0  0  0  0  0  0
    7.1168  -50.3092  -22.7969 N   0  0  0  0  0  0  0  0  0  0  0  0
    7.4774  -49.7298  -23.5754 H   0  0  0  0  0  0  0  0  0  0  0  0
    6.1108  -51.2570  -23.2398 C   0  0  0  0  0  0  0  0  0  0  0  0
    5.2863  -51.8546  -22.2766 N   0  0  0  0  0  0  0  0  0  0  0  0
    5.9987  -51.5221  -24.4750 N   0  0  0  0  0  0  0  0  0  0  0  0
    5.7096  -52.4579  -21.5186 H   0  0  0  0  0  0  0  0  0  0  0  0
    4.2484  -51.6935  -22.3223 H   0  0  0  0  0  0  0  0  0  0  0  0
    6.5774  -51.1130  -25.2359 H   0  0  0  0  0  0  0  0  0  0  0  0
    1.2525  -51.2334  -21.5637 C   0  0  0  0  0  0  0  0  0  0  0  0
    1.8483  -52.4455  -22.2527 N   0  0  0  0  0  0  0  0  0  0  0  0
    2.6825  -52.6990  -21.7206 H   0  0  0  0  0  0  0  0  0  0  0  0
    2.2792  -52.1127  -23.8560 S   0  0  0  0  0  0  0  0  0  0  0  0
    2.7851  -50.6759  -23.9187 O   0  0  0  0  0  0  0  0  0  0  0  0
    3.3867  -53.0458  -24.3471 O   0  0  0  0  0  0  0  0  0  0  0  0
    1.0058  -52.2392  -25.0324 C   0  0  0  0  0  0  0  0  0  0  0  0
   -0.3385  -52.0995  -24.7387 C   0  0  0  0  0  0  0  0  0  0  0  0
   -1.3263  -52.1963  -25.6962 C   0  0  0  0  0  0  0  0  0  0  0  0
   -1.0008  -52.4425  -27.0189 C   0  0  0  0  0  0  0  0  0  0  0  0
   -1.9951  -52.5416  -27.9882 C   0  0  0  0  0  0  0  0  0  0  0  0
   -1.6178  -52.7877  -29.2844 C   0  0  0  0  0  0  0  0  0  0  0  0
   -0.2847  -52.9416  -29.6667 C   0  0  0  0  0  0  0  0  0  0  0  0
    0.6441  -52.8313  -28.6575 C   0  0  0  0  0  0  0  0  0  0  0  0
    0.3306  -52.5849  -27.3360 C   0  0  0  0  0  0  0  0  0  0  0  0
    1.3066  -52.4842  -26.3597 C   0  0  0  0  0  0  0  0  0  0  0  0
   -0.1462  -51.5189  -21.2216 C   0  0  0  0  0  0  0  0  0  0  0  0
   -0.7108  -52.9965  -19.2534 C   0  0  0  0  0  0  0  0  0  0  0  0
   -0.4992  -52.8808  -20.7728 C   0  0  0  0  0  0  0  0  0  0  0  0
   -1.3139  -53.8427  -21.4845 C   0  0  0  0  0  0  0  0  0  0  0  0
 43 44  1  0  0  0
 44 45  1  0  0  0
 44 42  1  0  0  0
 42 26  1  0  0  0
 26 27  1  0  0  0
 27 29  1  0  0  0
 29 30  2  0  0  0
 29 31  2  0  0  0
 29 32  1  0  0  0
 32 33  2  0  0  0
 33 34  1  0  0  0
 34 35  2  0  0  0
 35 36  1  0  0  0
 36 37  2  0  0  0
 37 38  1  0  0  0
 38 39  2  0  0  0
 39 40  1  0  0  0
 40 41  2  0  0  0
 26  1  1  0  0  0
  1  2  2  0  0  0
  1  3  1  0  0  0
  3  4  1  0  0  0
  4  5  1  0  0  0
  5  6  1  0  0  0
  6  7  1  0  0  0
  7  8  1  0  0  0
  8  9  2  0  0  0
  8 10  1  0  0  0
 10 12  1  0  0  0
 12 15  1  0  0  0
 15 16  1  0  0  0
 16 17  1  0  0  0
 17 18  1  0  0  0
 18 20  1  0  0  0
 20 21  1  0  0  0
 20 22  2  0  0  0
 12 13  1  0  0  0
 13 14  2  0  0  0
 41 32  1  0  0  0
  7  3  1  0  0  0
 40 35  1  0  0  0
 27 28  1  0  0  0
 10 11  1  0  0  0
 18 19  1  0  0  0
 21 23  1  0  0  0
 21 24  1  0  0  0
 22 25  1  0  0  0
M  END
> <minimizedAffinity>
-7.28578

> <CNNscore>
0.1356078684

> <CNNaffinity>
6.6136503220

> <CNN_VS>
0.8968630433

> <CNNaffinity_variance>
0.3065024316

$$$$
[H]N=C(N([H])[H])N([H])C([H])([H])C([H])([H])C([H])([H])[C@@]([H])(C([H])=O)N([H])C(=O)[C@@]1([H])N(C(=O)[C@@]([H])(N([H])S(=O)(=O)c2c([H])c([H])c3c([H])c([H])c([H])c([H])c3c2[H])C([H])([H])C([H])(C([H])([H])[H])C([H])([H])[H])C([H])([H])C([H])([H])C1([H])[H]


 45 47  0  0  0  0  0  0  0  0999 V2000
    1.9144  -51.6024  -21.0502 C   0  0  0  0  0  0  0  0  0  0  0  0
    2.1004  -52.4564  -20.0272 O   0  0  0  0  0  0  0  0  0  0  0  0
    2.2986  -50.3162  -20.6964 N   0  0  0  0  0  0  0  0  0  0  0  0
    2.8861  -50.0863  -19.3215 C   0  0  0  0  0  0  0  0  0  0  0  0
    2.4497  -48.7104  -18.9225 C   0  0  0  0  0  0  0  0  0  0  0  0
    1.4835  -48.2781  -20.0360 C   0  0  0  0  0  0  0  0  0  0  0  0
    2.2212  -48.9954  -21.2066 C   0  0  0  0  0  0  0  0  0  0  0  0
    3.4842  -48.2505  -21.4043 C   0  0  0  0  0  0  0  0  0  0  0  0
    4.5300  -48.8728  -21.6485 O   0  0  0  0  0  0  0  0  0  0  0  0
    3.4277  -46.8401  -21.3029 N   0  0  0  0  0  0  0  0  0  0  0  0
    2.5431  -46.3634  -21.1025 H   0  0  0  0  0  0  0  0  0  0  0  0
    4.6045  -45.9658  -21.4727 C   0  0  0  0  0  0  0  0  0  0  0  0
    4.4731  -44.8971  -20.4523 C   0  0  0  0  0  0  0  0  0  0  0  0
    3.8077  -45.0758  -19.4732 O   0  0  0  0  0  0  0  0  0  0  0  0
    4.6130  -45.3360  -22.8050 C   0  0  0  0  0  0  0  0  0  0  0  0
    3.3021  -45.0619  -23.4116 C   0  0  0  0  0  0  0  0  0  0  0  0
    3.2634  -44.8869  -24.8674 C   0  0  0  0  0  0  0  0  0  0  0  0
    2.1263  -45.1675  -25.6410 N   0  0  0  0  0  0  0  0  0  0  0  0
    1.1391  -44.8714  -25.5426 H   0  0  0  0  0  0  0  0  0  0  0  0
    2.3201  -46.0618  -26.7676 C   0  0  0  0  0  0  0  0  0  0  0  0
    1.6782  -45.7612  -27.9769 N   0  0  0  0  0  0  0  0  0  0  0  0
    3.0581  -47.0850  -26.6372 N   0  0  0  0  0  0  0  0  0  0  0  0
    0.6225  -45.7230  -28.0203 H   0  0  0  0  0  0  0  0  0  0  0  0
    2.2611  -45.5769  -28.8321 H   0  0  0  0  0  0  0  0  0  0  0  0
    3.5604  -47.3613  -25.7698 H   0  0  0  0  0  0  0  0  0  0  0  0
    1.3424  -52.2985  -22.2153 C   0  0  0  0  0  0  0  0  0  0  0  0
    2.6073  -52.4709  -23.0335 N   0  0  0  0  0  0  0  0  0  0  0  0
    3.3723  -52.1079  -22.4623 H   0  0  0  0  0  0  0  0  0  0  0  0
    2.5364  -51.6166  -24.4937 S   0  0  0  0  0  0  0  0  0  0  0  0
    2.5735  -50.1273  -24.1699 O   0  0  0  0  0  0  0  0  0  0  0  0
    3.7209  -51.9522  -25.4008 O   0  0  0  0  0  0  0  0  0  0  0  0
    1.1173  -51.8755  -25.4634 C   0  0  0  0  0  0  0  0  0  0  0  0
   -0.1764  -51.6943  -25.0093 C   0  0  0  0  0  0  0  0  0  0  0  0
   -1.2834  -51.8992  -25.8059 C   0  0  0  0  0  0  0  0  0  0  0  0
   -1.1368  -52.3033  -27.1217 C   0  0  0  0  0  0  0  0  0  0  0  0
   -2.2519  -52.5118  -27.9288 C   0  0  0  0  0  0  0  0  0  0  0  0
   -2.0504  -52.9130  -29.2256 C   0  0  0  0  0  0  0  0  0  0  0  0
   -0.7795  -53.1188  -29.7637 C   0  0  0  0  0  0  0  0  0  0  0  0
    0.2757  -52.8940  -28.9098 C   0  0  0  0  0  0  0  0  0  0  0  0
    0.1409  -52.4899  -27.5969 C   0  0  0  0  0  0  0  0  0  0  0  0
    1.2387  -52.2789  -26.7806 C   0  0  0  0  0  0  0  0  0  0  0  0
    0.7151  -53.6118  -22.0247 C   0  0  0  0  0  0  0  0  0  0  0  0
   -1.2775  -54.7762  -23.0492 C   0  0  0  0  0  0  0  0  0  0  0  0
   -0.7579  -53.7045  -22.0755 C   0  0  0  0  0  0  0  0  0  0  0  0
   -1.6754  -53.5185  -20.9715 C   0  0  0  0  0  0  0  0  0  0  0  0
 43 44  1  0  0  0
 44 45  1  0  0  0
 44 42  1  0  0  0
 42 26  1  0  0  0
 26 27  1  0  0  0
 27 29  1  0  0  0
 29 30  2  0  0  0
 29 31  2  0  0  0
 29 32  1  0  0  0
 32 33  2  0  0  0
 33 34  1  0  0  0
 34 35  2  0  0  0
 35 36  1  0  0  0
 36 37  2  0  0  0
 37 38  1  0  0  0
 38 39  2  0  0  0
 39 40  1  0  0  0
 40 41  2  0  0  0
 26  1  1  0  0  0
  1  2  2  0  0  0
  1  3  1  0  0  0
  3  4  1  0  0  0
  4  5  1  0  0  0
  5  6  1  0  0  0
  6  7  1  0  0  0
  7  8  1  0  0  0
  8  9  2  0  0  0
  8 10  1  0  0  0
 10 12  1  0  0  0
 12 15  1  0  0  0
 15 16  1  0  0  0
 16 17  1  0  0  0
 17 18  1  0  0  0
 18 20  1  0  0  0
 20 21  1  0  0  0
 20 22  2  0  0  0
 12 13  1  0  0  0
 13 14  2  0  0  0
 41 32  1  0  0  0
  7  3  1  0  0  0
 40 35  1  0  0  0
 27 28  1  0  0  0
 10 11  1  0  0  0
 18 19  1  0  0  0
 21 23  1  0  0  0
 21 24  1  0  0  0
 22 25  1  0  0  0
M  END
> <minimizedAffinity>
-6.74615

> <CNNscore>
0.1311578006

> <CNNaffinity>
6.4559030533

> <CNN_VS>
0.8467420340

> <CNNaffinity_variance>
0.1836405396

$$$$
[H]N=C(N([H])[H])N([H])C([H])([H])C([H])([H])C([H])([H])[C@@]([H])(C([H])=O)N([H])C(=O)[C@@]1([H])N(C(=O)[C@@]([H])(N([H])S(=O)(=O)c2c([H])c([H])c3c([H])c([H])c([H])c([H])c3c2[H])C([H])([H])C([H])(C([H])([H])[H])C([H])([H])[H])C([H])([H])C([H])([H])C1([H])[H]


 45 47  0  0  0  0  0  0  0  0999 V2000
   -0.3284  -53.3362  -24.3293 C   0  0  0  0  0  0  0  0  0  0  0  0
   -0.6498  -54.5464  -24.8218 O   0  0  0  0  0  0  0  0  0  0  0  0
   -0.4104  -53.3287  -22.9436 N   0  0  0  0  0  0  0  0  0  0  0  0
   -0.7697  -54.6136  -22.2307 C   0  0  0  0  0  0  0  0  0  0  0  0
   -1.5488  -54.1981  -21.0210 C   0  0  0  0  0  0  0  0  0  0  0  0
   -1.7398  -52.6833  -21.1913 C   0  0  0  0  0  0  0  0  0  0  0  0
   -0.3662  -52.4014  -21.8718 C   0  0  0  0  0  0  0  0  0  0  0  0
    0.6540  -52.6021  -20.8193 C   0  0  0  0  0  0  0  0  0  0  0  0
    0.5586  -53.5726  -20.0513 O   0  0  0  0  0  0  0  0  0  0  0  0
    1.7049  -51.6569  -20.7462 N   0  0  0  0  0  0  0  0  0  0  0  0
    1.7496  -50.8704  -21.4013 H   0  0  0  0  0  0  0  0  0  0  0  0
    2.7908  -51.7252  -19.7492 C   0  0  0  0  0  0  0  0  0  0  0  0
    2.2717  -51.0585  -18.5299 C   0  0  0  0  0  0  0  0  0  0  0  0
    2.1921  -49.8649  -18.4820 O   0  0  0  0  0  0  0  0  0  0  0  0
    3.9827  -50.9897  -20.2078 C   0  0  0  0  0  0  0  0  0  0  0  0
    4.6254  -51.4787  -21.4363 C   0  0  0  0  0  0  0  0  0  0  0  0
    5.7327  -50.6810  -21.9737 C   0  0  0  0  0  0  0  0  0  0  0  0
    6.7222  -51.2151  -22.8138 N   0  0  0  0  0  0  0  0  0  0  0  0
    7.6832  -51.5468  -22.6177 H   0  0  0  0  0  0  0  0  0  0  0  0
    6.3918  -51.2971  -24.2247 C   0  0  0  0  0  0  0  0  0  0  0  0
    6.4574  -50.1277  -24.9948 N   0  0  0  0  0  0  0  0  0  0  0  0
    6.0548  -52.4118  -24.7268 N   0  0  0  0  0  0  0  0  0  0  0  0
    5.8350  -49.3053  -24.7623 H   0  0  0  0  0  0  0  0  0  0  0  0
    7.1306  -50.0847  -25.8011 H   0  0  0  0  0  0  0  0  0  0  0  0
    5.9882  -53.3119  -24.2104 H   0  0  0  0  0  0  0  0  0  0  0  0
   -0.0112  -52.3960  -25.4177 C   0  0  0  0  0  0  0  0  0  0  0  0
    0.9390  -53.2677  -26.2153 N   0  0  0  0  0  0  0  0  0  0  0  0
    0.8038  -54.2232  -25.8808 H   0  0  0  0  0  0  0  0  0  0  0  0
    2.5542  -52.8123  -25.9897 S   0  0  0  0  0  0  0  0  0  0  0  0
    3.0767  -53.5300  -24.7504 O   0  0  0  0  0  0  0  0  0  0  0  0
    3.4221  -53.2029  -27.1867 O   0  0  0  0  0  0  0  0  0  0  0  0
    2.8428  -51.1170  -25.7367 C   0  0  0  0  0  0  0  0  0  0  0  0
    3.1848  -50.2298  -26.7411 C   0  0  0  0  0  0  0  0  0  0  0  0
    3.3989  -48.8870  -26.5107 C   0  0  0  0  0  0  0  0  0  0  0  0
    3.2760  -48.3649  -25.2346 C   0  0  0  0  0  0  0  0  0  0  0  0
    3.4919  -47.0100  -24.9980 C   0  0  0  0  0  0  0  0  0  0  0  0
    3.3579  -46.5444  -23.7142 C   0  0  0  0  0  0  0  0  0  0  0  0
    3.0157  -47.3707  -22.6430 C   0  0  0  0  0  0  0  0  0  0  0  0
    2.8172  -48.6972  -22.9497 C   0  0  0  0  0  0  0  0  0  0  0  0
    2.9360  -49.2280  -24.2184 C   0  0  0  0  0  0  0  0  0  0  0  0
    2.7255  -50.5726  -24.4709 C   0  0  0  0  0  0  0  0  0  0  0  0
   -1.0903  -51.9355  -26.2999 C   0  0  0  0  0  0  0  0  0  0  0  0
   -2.7060  -52.5886  -28.1271 C   0  0  0  0  0  0  0  0  0  0  0  0
   -1.2559  -52.5898  -27.6134 C   0  0  0  0  0  0  0  0  0  0  0  0
   -0.3159  -52.5719  -28.7140 C   0  0  0  0  0  0  0  0  0  0  0  0
 43 44  1  0  0  0
 44 45  1  0  0  0
 44 42  1  0  0  0
 42 26  1  0  0  0
 26 27  1  0  0  0
 27 29  1  0  0  0
 29 30  2  0  0  0
 29 31  2  0  0  0
 29 32  1  0  0  0
 32 33  2  0  0  0
 33 34  1  0  0  0
 34 35  2  0  0  0
 35 36  1  0  0  0
 36 37  2  0  0  0
 37 38  1  0  0  0
 38 39  2  0  0  0
 39 40  1  0  0  0
 40 41  2  0  0  0
 26  1  1  0  0  0
  1  2  2  0  0  0
  1  3  1  0  0  0
  3  4  1  0  0  0
  4  5  1  0  0  0
  5  6  1  0  0  0
  6  7  1  0  0  0
  7  8  1  0  0  0
  8  9  2  0  0  0
  8 10  1  0  0  0
 10 12  1  0  0  0
 12 15  1  0  0  0
 15 16  1  0  0  0
 16 17  1  0  0  0
 17 18  1  0  0  0
 18 20  1  0  0  0
 20 21  1  0  0  0
 20 22  2  0  0  0
 12 13  1  0  0  0
 13 14  2  0  0  0
 41 32  1  0  0  0
  7  3  1  0  0  0
 40 35  1  0  0  0
 27 28  1  0  0  0
 10 11  1  0  0  0
 18 19  1  0  0  0
 21 23  1  0  0  0
 21 24  1  0  0  0
 22 25  1  0  0  0
M  END
> <minimizedAffinity>
-8.37292

> <CNNscore>
0.1236243844

> <CNNaffinity>
6.6570496559

> <CNN_VS>
0.8229736686

> <CNNaffinity_variance>
0.5727846622

$$$$
[H]N=C(N([H])[H])N([H])C([H])([H])C([H])([H])C([H])([H])[C@@]([H])(C([H])=O)N([H])C(=O)[C@@]1([H])N(C(=O)[C@@]([H])(N([H])S(=O)(=O)c2c([H])c([H])c3c([H])c([H])c([H])c([H])c3c2[H])C([H])([H])C([H])(C([H])([H])[H])C([H])([H])[H])C([H])([H])C([H])([H])C1([H])[H]


 45 47  0  0  0  0  0  0  0  0999 V2000
    2.6139  -51.1694  -20.2711 C   0  0  0  0  0  0  0  0  0  0  0  0
    3.3390  -52.1113  -19.6406 O   0  0  0  0  0  0  0  0  0  0  0  0
    3.1617  -49.9094  -20.0736 N   0  0  0  0  0  0  0  0  0  0  0  0
    4.4430  -49.7914  -19.2782 C   0  0  0  0  0  0  0  0  0  0  0  0
    4.3511  -48.4806  -18.5595 C   0  0  0  0  0  0  0  0  0  0  0  0
    2.9285  -47.9817  -18.8553 C   0  0  0  0  0  0  0  0  0  0  0  0
    2.8333  -48.5492  -20.3037 C   0  0  0  0  0  0  0  0  0  0  0  0
    3.7643  -47.7365  -21.1174 C   0  0  0  0  0  0  0  0  0  0  0  0
    4.0595  -46.5893  -20.7467 O   0  0  0  0  0  0  0  0  0  0  0  0
    4.2780  -48.3257  -22.2972 N   0  0  0  0  0  0  0  0  0  0  0  0
    4.0116  -49.2775  -22.5672 H   0  0  0  0  0  0  0  0  0  0  0  0
    5.2123  -47.6369  -23.2085 C   0  0  0  0  0  0  0  0  0  0  0  0
    6.4854  -47.4937  -22.4606 C   0  0  0  0  0  0  0  0  0  0  0  0
    6.9782  -48.4419  -21.9207 O   0  0  0  0  0  0  0  0  0  0  0  0
    4.7241  -46.2901  -23.5545 C   0  0  0  0  0  0  0  0  0  0  0  0
    3.5693  -46.2217  -24.4618 C   0  0  0  0  0  0  0  0  0  0  0  0
    3.4000  -47.3265  -25.4116 C   0  0  0  0  0  0  0  0  0  0  0  0
    4.0181  -47.3527  -26.6716 N   0  0  0  0  0  0  0  0  0  0  0  0
    4.1507  -46.6155  -27.3864 H   0  0  0  0  0  0  0  0  0  0  0  0
    4.5436  -48.6349  -27.1031 C   0  0  0  0  0  0  0  0  0  0  0  0
    4.8794  -48.7984  -28.4542 N   0  0  0  0  0  0  0  0  0  0  0  0
    4.6873  -49.5706  -26.2592 N   0  0  0  0  0  0  0  0  0  0  0  0
    4.1354  -48.7045  -29.1995 H   0  0  0  0  0  0  0  0  0  0  0  0
    5.8759  -49.0150  -28.7098 H   0  0  0  0  0  0  0  0  0  0  0  0
    4.4581  -49.5117  -25.2466 H   0  0  0  0  0  0  0  0  0  0  0  0
    1.4561  -51.7709  -20.9544 C   0  0  0  0  0  0  0  0  0  0  0  0
    2.1493  -52.2586  -22.2117 N   0  0  0  0  0  0  0  0  0  0  0  0
    3.1354  -52.3732  -21.9716 H   0  0  0  0  0  0  0  0  0  0  0  0
    2.0015  -51.1516  -23.4844 S   0  0  0  0  0  0  0  0  0  0  0  0
    1.4693  -49.8433  -22.9107 O   0  0  0  0  0  0  0  0  0  0  0  0
    3.3487  -50.8821  -24.1560 O   0  0  0  0  0  0  0  0  0  0  0  0
    0.9210  -51.6029  -24.7691 C   0  0  0  0  0  0  0  0  0  0  0  0
   -0.4573  -51.6127  -24.6562 C   0  0  0  0  0  0  0  0  0  0  0  0
   -1.2897  -51.9672  -25.6971 C   0  0  0  0  0  0  0  0  0  0  0  0
   -0.7632  -52.3349  -26.9235 C   0  0  0  0  0  0  0  0  0  0  0  0
   -1.6002  -52.6940  -27.9764 C   0  0  0  0  0  0  0  0  0  0  0  0
   -1.0264  -53.0511  -29.1707 C   0  0  0  0  0  0  0  0  0  0  0  0
    0.3546  -53.0682  -29.3700 C   0  0  0  0  0  0  0  0  0  0  0  0
    1.1203  -52.7019  -28.2870 C   0  0  0  0  0  0  0  0  0  0  0  0
    0.6059  -52.3325  -27.0605 C   0  0  0  0  0  0  0  0  0  0  0  0
    1.4236  -51.9734  -26.0030 C   0  0  0  0  0  0  0  0  0  0  0  0
    0.7628  -52.9005  -20.3234 C   0  0  0  0  0  0  0  0  0  0  0  0
   -1.3243  -51.9272  -21.3589 C   0  0  0  0  0  0  0  0  0  0  0  0
   -0.6669  -53.1105  -20.6280 C   0  0  0  0  0  0  0  0  0  0  0  0
   -1.3001  -54.3605  -20.9908 C   0  0  0  0  0  0  0  0  0  0  0  0
 43 44  1  0  0  0
 44 45  1  0  0  0
 44 42  1  0  0  0
 42 26  1  0  0  0
 26 27  1  0  0  0
 27 29  1  0  0  0
 29 30  2  0  0  0
 29 31  2  0  0  0
 29 32  1  0  0  0
 32 33  2  0  0  0
 33 34  1  0  0  0
 34 35  2  0  0  0
 35 36  1  0  0  0
 36 37  2  0  0  0
 37 38  1  0  0  0
 38 39  2  0  0  0
 39 40  1  0  0  0
 40 41  2  0  0  0
 26  1  1  0  0  0
  1  2  2  0  0  0
  1  3  1  0  0  0
  3  4  1  0  0  0
  4  5  1  0  0  0
  5  6  1  0  0  0
  6  7  1  0  0  0
  7  8  1  0  0  0
  8  9  2  0  0  0
  8 10  1  0  0  0
 10 12  1  0  0  0
 12 15  1  0  0  0
 15 16  1  0  0  0
 16 17  1  0  0  0
 17 18  1  0  0  0
 18 20  1  0  0  0
 20 21  1  0  0  0
 20 22  2  0  0  0
 12 13  1  0  0  0
 13 14  2  0  0  0
 41 32  1  0  0  0
  7  3  1  0  0  0
 40 35  1  0  0  0
 27 28  1  0  0  0
 10 11  1  0  0  0
 18 19  1  0  0  0
 21 23  1  0  0  0
 21 24  1  0  0  0
 22 25  1  0  0  0
M  END
> <minimizedAffinity>
-6.43047

> <CNNscore>
0.1129474118

> <CNNaffinity>
6.5062088966

> <CNN_VS>
0.7348594666

> <CNNaffinity_variance>
0.2517482638

$$$$
[H]N=C(N([H])[H])N([H])C([H])([H])C([H])([H])C([H])([H])[C@@]([H])(C([H])=O)N([H])C(=O)[C@@]1([H])N(C(=O)[C@@]([H])(N([H])S(=O)(=O)c2c([H])c([H])c3c([H])c([H])c([H])c([H])c3c2[H])C([H])([H])C([H])(C([H])([H])[H])C([H])([H])[H])C([H])([H])C([H])([H])C1([H])[H]


 45 47  0  0  0  0  0  0  0  0999 V2000
    5.2551  -49.1454  -20.1489 C   0  0  0  0  0  0  0  0  0  0  0  0
    6.5514  -49.4100  -19.9040 O   0  0  0  0  0  0  0  0  0  0  0  0
    4.8820  -49.6176  -21.3998 N   0  0  0  0  0  0  0  0  0  0  0  0
    5.9042  -50.3634  -22.2288 C   0  0  0  0  0  0  0  0  0  0  0  0
    5.5873  -50.0295  -23.6539 C   0  0  0  0  0  0  0  0  0  0  0  0
    4.4852  -48.9633  -23.5605 C   0  0  0  0  0  0  0  0  0  0  0  0
    3.7833  -49.5366  -22.2926 C   0  0  0  0  0  0  0  0  0  0  0  0
    3.1415  -50.7985  -22.7226 C   0  0  0  0  0  0  0  0  0  0  0  0
    3.2812  -51.8219  -22.0343 O   0  0  0  0  0  0  0  0  0  0  0  0
    2.3870  -50.7670  -23.9196 N   0  0  0  0  0  0  0  0  0  0  0  0
    2.2934  -49.9004  -24.4582 H   0  0  0  0  0  0  0  0  0  0  0  0
    1.6936  -51.9460  -24.4738 C   0  0  0  0  0  0  0  0  0  0  0  0
    2.6398  -52.5659  -25.4334 C   0  0  0  0  0  0  0  0  0  0  0  0
    3.4630  -51.8961  -25.9875 O   0  0  0  0  0  0  0  0  0  0  0  0
    0.4785  -51.5529  -25.2093 C   0  0  0  0  0  0  0  0  0  0  0  0
   -0.4835  -52.6231  -25.5105 C   0  0  0  0  0  0  0  0  0  0  0  0
   -0.7441  -52.9079  -26.9255 C   0  0  0  0  0  0  0  0  0  0  0  0
   -0.0839  -53.9233  -27.6350 N   0  0  0  0  0  0  0  0  0  0  0  0
   -0.0897  -54.9528  -27.5248 H   0  0  0  0  0  0  0  0  0  0  0  0
    0.8068  -53.4911  -28.6963 C   0  0  0  0  0  0  0  0  0  0  0  0
    2.1371  -53.9322  -28.6726 N   0  0  0  0  0  0  0  0  0  0  0  0
    0.3689  -52.7323  -29.6133 N   0  0  0  0  0  0  0  0  0  0  0  0
    2.7653  -53.6755  -27.8619 H   0  0  0  0  0  0  0  0  0  0  0  0
    2.4951  -54.5171  -29.4694 H   0  0  0  0  0  0  0  0  0  0  0  0
   -0.6040  -52.3726  -29.6870 H   0  0  0  0  0  0  0  0  0  0  0  0
    4.6472  -48.4197  -19.0206 C   0  0  0  0  0  0  0  0  0  0  0  0
    4.4795  -49.5776  -18.0561 N   0  0  0  0  0  0  0  0  0  0  0  0
    4.8041  -50.4120  -18.5477 H   0  0  0  0  0  0  0  0  0  0  0  0
    2.8641  -49.7857  -17.5935 S   0  0  0  0  0  0  0  0  0  0  0  0
    2.8277  -50.7969  -16.4532 O   0  0  0  0  0  0  0  0  0  0  0  0
    2.2437  -48.4749  -17.1083 O   0  0  0  0  0  0  0  0  0  0  0  0
    1.7884  -50.3860  -18.8199 C   0  0  0  0  0  0  0  0  0  0  0  0
    1.1436  -49.5860  -19.7456 C   0  0  0  0  0  0  0  0  0  0  0  0
    0.3021  -50.0929  -20.7136 C   0  0  0  0  0  0  0  0  0  0  0  0
    0.0663  -51.4544  -20.7964 C   0  0  0  0  0  0  0  0  0  0  0  0
   -0.7830  -51.9698  -21.7717 C   0  0  0  0  0  0  0  0  0  0  0  0
   -0.9828  -53.3269  -21.8091 C   0  0  0  0  0  0  0  0  0  0  0  0
   -0.3718  -54.2052  -20.9134 C   0  0  0  0  0  0  0  0  0  0  0  0
    0.4541  -53.6269  -19.9771 C   0  0  0  0  0  0  0  0  0  0  0  0
    0.6971  -52.2712  -19.8863 C   0  0  0  0  0  0  0  0  0  0  0  0
    1.5379  -51.7422  -18.9225 C   0  0  0  0  0  0  0  0  0  0  0  0
    5.4136  -47.3561  -18.3602 C   0  0  0  0  0  0  0  0  0  0  0  0
    3.7664  -45.4536  -18.5678 C   0  0  0  0  0  0  0  0  0  0  0  0
    5.2014  -45.9602  -18.7930 C   0  0  0  0  0  0  0  0  0  0  0  0
    6.1541  -44.8737  -18.7089 C   0  0  0  0  0  0  0  0  0  0  0  0
 43 44  1  0  0  0
 44 45  1  0  0  0
 44 42  1  0  0  0
 42 26  1  0  0  0
 26 27  1  0  0  0
 27 29  1  0  0  0
 29 30  2  0  0  0
 29 31  2  0  0  0
 29 32  1  0  0  0
 32 33  2  0  0  0
 33 34  1  0  0  0
 34 35  2  0  0  0
 35 36  1  0  0  0
 36 37  2  0  0  0
 37 38  1  0  0  0
 38 39  2  0  0  0
 39 40  1  0  0  0
 40 41  2  0  0  0
 26  1  1  0  0  0
  1  2  2  0  0  0
  1  3  1  0  0  0
  3  4  1  0  0  0
  4  5  1  0  0  0
  5  6  1  0  0  0
  6  7  1  0  0  0
  7  8  1  0  0  0
  8  9  2  0  0  0
  8 10  1  0  0  0
 10 12  1  0  0  0
 12 15  1  0  0  0
 15 16  1  0  0  0
 16 17  1  0  0  0
 17 18  1  0  0  0
 18 20  1  0  0  0
 20 21  1  0  0  0
 20 22  2  0  0  0
 12 13  1  0  0  0
 13 14  2  0  0  0
 41 32  1  0  0  0
  7  3  1  0  0  0
 40 35  1  0  0  0
 27 28  1  0  0  0
 10 11  1  0  0  0
 18 19  1  0  0  0
 21 23  1  0  0  0
 21 24  1  0  0  0
 22 25  1  0  0  0
M  END
> <minimizedAffinity>
-7.18137

> <CNNscore>
0.1077209562

> <CNNaffinity>
6.4385957718

> <CNN_VS>
0.6935716867

> <CNNaffinity_variance>
0.4034836888

$$$$
[H]OC(=O)C([H])([H])C(=O)OSC([H])([H])C([H])([H])C([H])([H])OC([H])([H])C([H])([H])[H]


 15 14  0  0  0  0  0  0  0  0999 V2000
   -0.7465  -52.2655  -23.2598 O   0  0  0  0  0  0  0  0  0  0  0  0
   -0.5201  -53.2641  -22.3290 C   0  0  0  0  0  0  0  0  0  0  0  0
   -1.1732  -54.3374  -22.3596 O   0  0  0  0  0  0  0  0  0  0  0  0
    0.5009  -53.1243  -21.2488 C   0  0  0  0  0  0  0  0  0  0  0  0
    0.1378  -51.9588  -20.4034 C   0  0  0  0  0  0  0  0  0  0  0  0
   -0.2264  -50.7808  -21.0467 O   0  0  0  0  0  0  0  0  0  0  0  0
    0.1663  -52.0585  -19.1532 O   0  0  0  0  0  0  0  0  0  0  0  0
   -0.9688  -50.7704  -21.7136 H   0  0  0  0  0  0  0  0  0  0  0  0
   -0.6240  -52.5657  -24.9410 S   0  0  0  0  0  0  0  0  0  0  0  0
    0.5903  -53.7920  -25.3949 C   0  0  0  0  0  0  0  0  0  0  0  0
    1.4701  -53.2072  -26.4911 C   0  0  0  0  0  0  0  0  0  0  0  0
    0.5342  -52.3294  -27.3312 C   0  0  0  0  0  0  0  0  0  0  0  0
    0.7315  -52.7202  -28.6504 O   0  0  0  0  0  0  0  0  0  0  0  0
   -1.6813  -52.6488  -28.5254 C   0  0  0  0  0  0  0  0  0  0  0  0
   -0.4463  -52.7411  -29.3633 C   0  0  0  0  0  0  0  0  0  0  0  0
 14 15  1  0  0  0
 15 13  1  0  0  0
 13 12  1  0  0  0
 12 11  1  0  0  0
 11 10  1  0  0  0
 10  9  1  0  0  0
  9  1  1  0  0  0
  1  2  1  0  0  0
  2  3  2  0  0  0
  2  4  1  0  0  0
  4  5  1  0  0  0
  5  6  1  0  0  0
  5  7  2  0  0  0
  6  8  1  0  0  0
M  END
> <minimizedAffinity>
-3.89690

> <CNNscore>
0.4821226597

> <CNNaffinity>
4.2333250046

> <CNN_VS>
2.0409820080

> <CNNaffinity_variance>
0.0498900115

$$$$
[H]OC(=O)C([H])([H])C(=O)OSC([H])([H])C([H])([H])C([H])([H])OC([H])([H])C([H])([H])[H]


 15 14  0  0  0  0  0  0  0  0999 V2000
   -0.9060  -53.9131  -25.9273 O   0  0  0  0  0  0  0  0  0  0  0  0
   -0.0432  -54.3024  -26.9368 C   0  0  0  0  0  0  0  0  0  0  0  0
    0.5725  -55.3964  -26.8756 O   0  0  0  0  0  0  0  0  0  0  0  0
    0.2018  -53.4548  -28.1409 C   0  0  0  0  0  0  0  0  0  0  0  0
    1.6675  -53.2916  -28.3139 C   0  0  0  0  0  0  0  0  0  0  0  0
    2.3772  -54.3553  -28.8604 O   0  0  0  0  0  0  0  0  0  0  0  0
    2.2234  -52.2205  -27.9711 O   0  0  0  0  0  0  0  0  0  0  0  0
    2.1230  -54.7391  -29.7459 H   0  0  0  0  0  0  0  0  0  0  0  0
   -0.3652  -53.7180  -24.3146 S   0  0  0  0  0  0  0  0  0  0  0  0
   -1.0971  -54.8439  -23.1393 C   0  0  0  0  0  0  0  0  0  0  0  0
   -0.9116  -54.2626  -21.7446 C   0  0  0  0  0  0  0  0  0  0  0  0
   -0.4591  -52.8147  -21.9703 C   0  0  0  0  0  0  0  0  0  0  0  0
   -0.4781  -52.2125  -20.7178 O   0  0  0  0  0  0  0  0  0  0  0  0
   -0.5888  -52.5633  -18.3289 C   0  0  0  0  0  0  0  0  0  0  0  0
   -0.4301  -53.1385  -19.6999 C   0  0  0  0  0  0  0  0  0  0  0  0
 14 15  1  0  0  0
 15 13  1  0  0  0
 13 12  1  0  0  0
 12 11  1  0  0  0
 11 10  1  0  0  0
 10  9  1  0  0  0
  9  1  1  0  0  0
  1  2  1  0  0  0
  2  3  2  0  0  0
  2  4  1  0  0  0
  4  5  1  0  0  0
  5  6  1  0  0  0
  5  7  2  0  0  0
  6  8  1  0  0  0
M  END
> <minimizedAffinity>
-4.88755

> <CNNscore>
0.4268024862

> <CNNaffinity>
4.4188776016

> <CNN_VS>
1.8859879971

> <CNNaffinity_variance>
0.1538290679

$$$$
[H]OC(=O)C([H])([H])C(=O)OSC([H])([H])C([H])([H])C([H])([H])OC([H])([H])C([H])([H])[H]


 15 14  0  0  0  0  0  0  0  0999 V2000
   -1.4101  -55.0855  -22.2264 O   0  0  0  0  0  0  0  0  0  0  0  0
   -1.0404  -54.8913  -23.5457 C   0  0  0  0  0  0  0  0  0  0  0  0
   -1.1625  -55.8105  -24.3940 O   0  0  0  0  0  0  0  0  0  0  0  0
   -0.4824  -53.5940  -24.0298 C   0  0  0  0  0  0  0  0  0  0  0  0
   -0.2745  -53.6870  -25.4971 C   0  0  0  0  0  0  0  0  0  0  0  0
    0.8457  -54.3757  -25.9498 O   0  0  0  0  0  0  0  0  0  0  0  0
   -1.0959  -53.1542  -26.2813 O   0  0  0  0  0  0  0  0  0  0  0  0
    1.0116  -55.3204  -25.6741 H   0  0  0  0  0  0  0  0  0  0  0  0
   -1.4251  -53.7939  -21.1026 S   0  0  0  0  0  0  0  0  0  0  0  0
    0.1410  -53.4751  -20.3089 C   0  0  0  0  0  0  0  0  0  0  0  0
    0.3729  -51.9706  -20.3010 C   0  0  0  0  0  0  0  0  0  0  0  0
    0.8978  -51.6529  -18.8954 C   0  0  0  0  0  0  0  0  0  0  0  0
    0.1840  -50.5397  -18.4673 O   0  0  0  0  0  0  0  0  0  0  0  0
    0.0814  -49.2390  -16.4327 C   0  0  0  0  0  0  0  0  0  0  0  0
   -0.0463  -50.5659  -17.1101 C   0  0  0  0  0  0  0  0  0  0  0  0
 14 15  1  0  0  0
 15 13  1  0  0  0
 13 12  1  0  0  0
 12 11  1  0  0  0
 11 10  1  0  0  0
 10  9  1  0  0  0
  9  1  1  0  0  0
  1  2  1  0  0  0
  2  3  2  0  0  0
  2  4  1  0  0  0
  4  5  1  0  0  0
  5  6  1  0  0  0
  5  7  2  0  0  0
  6  8  1  0  0  0
M  END
> <minimizedAffinity>
-4.24312

> <CNNscore>
0.4112956226

> <CNNaffinity>
4.0600404739

> <CNN_VS>
1.6698769331

> <CNNaffinity_variance>
0.0405806974

$$$$
[H]OC(=O)C([H])([H])C(=O)OSC([H])([H])C([H])([H])C([H])([H])OC([H])([H])C([H])([H])[H]


 15 14  0  0  0  0  0  0  0  0999 V2000
    0.7662  -51.8543  -23.0643 O   0  0  0  0  0  0  0  0  0  0  0  0
    0.0100  -52.3763  -22.0295 C   0  0  0  0  0  0  0  0  0  0  0  0
   -0.8686  -51.6837  -21.4568 O   0  0  0  0  0  0  0  0  0  0  0  0
    0.1933  -53.7750  -21.5410 C   0  0  0  0  0  0  0  0  0  0  0  0
   -1.1446  -54.3627  -21.2774 C   0  0  0  0  0  0  0  0  0  0  0  0
   -1.7240  -54.1224  -20.0362 O   0  0  0  0  0  0  0  0  0  0  0  0
   -1.7126  -55.0490  -22.1607 O   0  0  0  0  0  0  0  0  0  0  0  0
   -1.8575  -53.1903  -19.7056 H   0  0  0  0  0  0  0  0  0  0  0  0
    1.0983  -52.7642  -24.4762 S   0  0  0  0  0  0  0  0  0  0  0  0
   -0.2938  -53.6730  -25.1245 C   0  0  0  0  0  0  0  0  0  0  0  0
    0.1538  -54.3890  -26.3913 C   0  0  0  0  0  0  0  0  0  0  0  0
    0.4760  -53.2716  -27.3912 C   0  0  0  0  0  0  0  0  0  0  0  0
   -0.1798  -53.6155  -28.5674 O   0  0  0  0  0  0  0  0  0  0  0  0
   -2.3310  -52.5331  -28.3602 C   0  0  0  0  0  0  0  0  0  0  0  0
   -0.9913  -52.5997  -29.0209 C   0  0  0  0  0  0  0  0  0  0  0  0
 14 15  1  0  0  0
 15 13  1  0  0  0
 13 12  1  0  0  0
 12 11  1  0  0  0
 11 10  1  0  0  0
 10  9  1  0  0  0
  9  1  1  0  0  0
  1  2  1  0  0  0
  2  3  2  0  0  0
  2  4  1  0  0  0
  4  5  1  0  0  0
  5  6  1  0  0  0
  5  7  2  0  0  0
  6  8  1  0  0  0
M  END
> <minimizedAffinity>
-4.57460

> <CNNscore>
0.3729845285

> <CNNaffinity>
4.2102222443

> <CNN_VS>
1.5703477859

> <CNNaffinity_variance>
0.0592097230

$$$$
[H]OC(=O)C([H])([H])C(=O)OSC([H])([H])C([H])([H])C([H])([H])OC([H])([H])C([H])([H])[H]


 15 14  0  0  0  0  0  0  0  0999 V2000
   -0.8783  -54.5118  -25.1842 O   0  0  0  0  0  0  0  0  0  0  0  0
    0.0799  -53.5928  -25.5747 C   0  0  0  0  0  0  0  0  0  0  0  0
    1.2490  -53.9574  -25.8573 O   0  0  0  0  0  0  0  0  0  0  0  0
   -0.2180  -52.1339  -25.6811 C   0  0  0  0  0  0  0  0  0  0  0  0
    0.9940  -51.3738  -25.2833 C   0  0  0  0  0  0  0  0  0  0  0  0
    1.9191  -51.0653  -26.2748 O   0  0  0  0  0  0  0  0  0  0  0  0
    1.1551  -51.0327  -24.0869 O   0  0  0  0  0  0  0  0  0  0  0  0
    1.6436  -50.5679  -27.0949 H   0  0  0  0  0  0  0  0  0  0  0  0
   -1.1175  -54.9083  -23.5358 S   0  0  0  0  0  0  0  0  0  0  0  0
   -0.2856  -53.8330  -22.3799 C   0  0  0  0  0  0  0  0  0  0  0  0
   -0.7830  -54.1640  -20.9797 C   0  0  0  0  0  0  0  0  0  0  0  0
    0.3113  -53.6534  -20.0341 C   0  0  0  0  0  0  0  0  0  0  0  0
   -0.3206  -52.7723  -19.1645 O   0  0  0  0  0  0  0  0  0  0  0  0
    0.4464  -50.8824  -17.8676 C   0  0  0  0  0  0  0  0  0  0  0  0
    0.2405  -51.5156  -19.2064 C   0  0  0  0  0  0  0  0  0  0  0  0
 14 15  1  0  0  0
 15 13  1  0  0  0
 13 12  1  0  0  0
 12 11  1  0  0  0
 11 10  1  0  0  0
 10  9  1  0  0  0
  9  1  1  0  0  0
  1  2  1  0  0  0
  2  3  2  0  0  0
  2  4  1  0  0  0
  4  5  1  0  0  0
  5  6  1  0  0  0
  5  7  2  0  0  0
  6  8  1  0  0  0
M  END
> <minimizedAffinity>
-3.98450

> <CNNscore>
0.3337381184

> <CNNaffinity>
4.0524687767

> <CNN_VS>
1.3524632454

> <CNNaffinity_variance>
0.1070672646

$$$$
[H]OC(=O)C([H])([H])C(=O)OSC([H])([H])C([H])([H])C([H])([H])OC([H])([H])C([H])([H])[H]


 15 14  0  0  0  0  0  0  0  0999 V2000
    2.2289  -51.6420  -22.2170 O   0  0  0  0  0  0  0  0  0  0  0  0
    1.8696  -51.1670  -23.4661 C   0  0  0  0  0  0  0  0  0  0  0  0
    2.2581  -50.0408  -23.8665 O   0  0  0  0  0  0  0  0  0  0  0  0
    1.0105  -51.9565  -24.3973 C   0  0  0  0  0  0  0  0  0  0  0  0
    1.8416  -53.0154  -25.0241 C   0  0  0  0  0  0  0  0  0  0  0  0
    3.2143  -52.9757  -24.8046 O   0  0  0  0  0  0  0  0  0  0  0  0
    1.3002  -53.9051  -25.7234 O   0  0  0  0  0  0  0  0  0  0  0  0
    3.5844  -52.9673  -23.8778 H   0  0  0  0  0  0  0  0  0  0  0  0
    1.6621  -50.9007  -20.7815 S   0  0  0  0  0  0  0  0  0  0  0  0
    0.1809  -51.6261  -20.1002 C   0  0  0  0  0  0  0  0  0  0  0  0
    0.0714  -53.0551  -20.6135 C   0  0  0  0  0  0  0  0  0  0  0  0
   -1.3320  -53.5211  -20.2069 C   0  0  0  0  0  0  0  0  0  0  0  0
   -1.7459  -54.3931  -21.2069 O   0  0  0  0  0  0  0  0  0  0  0  0
   -1.2215  -55.0552  -23.4716 C   0  0  0  0  0  0  0  0  0  0  0  0
   -0.7426  -54.6502  -22.1142 C   0  0  0  0  0  0  0  0  0  0  0  0
 14 15  1  0  0  0
 15 13  1  0  0  0
 13 12  1  0  0  0
 12 11  1  0  0  0
 11 10  1  0  0  0
 10  9  1  0  0  0
  9  1  1  0  0  0
  1  2  1  0  0  0
  2  3  2  0  0  0
  2  4  1  0  0  0
  4  5  1  0  0  0
  5  6  1  0  0  0
  5  7  2  0  0  0
  6  8  1  0  0  0
M  END
> <minimizedAffinity>
-3.76260

> <CNNscore>
0.3296811283

> <CNNaffinity>
3.9265503883

> <CNN_VS>
1.2945095301

> <CNNaffinity_variance>
0.1739026904

$$$$
[H]OC(=O)C([H])([H])C(=O)OSC([H])([H])C([H])([H])C([H])([H])OC([H])([H])C([H])([H])[H]


 15 14  0  0  0  0  0  0  0  0999 V2000
    1.1356  -51.3472  -22.0093 O   0  0  0  0  0  0  0  0  0  0  0  0
    0.7542  -52.5568  -21.4555 C   0  0  0  0  0  0  0  0  0  0  0  0
    0.3206  -53.4904  -22.1764 O   0  0  0  0  0  0  0  0  0  0  0  0
    0.8357  -52.8174  -19.9879 C   0  0  0  0  0  0  0  0  0  0  0  0
    1.8865  -51.9418  -19.4100 C   0  0  0  0  0  0  0  0  0  0  0  0
    3.1802  -52.0706  -19.9039 O   0  0  0  0  0  0  0  0  0  0  0  0
    1.5922  -51.1214  -18.5077 O   0  0  0  0  0  0  0  0  0  0  0  0
    3.3676  -51.9739  -20.8793 H   0  0  0  0  0  0  0  0  0  0  0  0
    1.7513  -51.2483  -23.6038 S   0  0  0  0  0  0  0  0  0  0  0  0
    3.1600  -52.2949  -23.9275 C   0  0  0  0  0  0  0  0  0  0  0  0
    2.9499  -52.9722  -25.2746 C   0  0  0  0  0  0  0  0  0  0  0  0
    1.4315  -52.9728  -25.4909 C   0  0  0  0  0  0  0  0  0  0  0  0
    1.1339  -54.1947  -26.0827 O   0  0  0  0  0  0  0  0  0  0  0  0
   -0.6187  -52.7703  -26.9439 C   0  0  0  0  0  0  0  0  0  0  0  0
    0.0490  -54.1082  -26.9262 C   0  0  0  0  0  0  0  0  0  0  0  0
 14 15  1  0  0  0
 15 13  1  0  0  0
 13 12  1  0  0  0
 12 11  1  0  0  0
 11 10  1  0  0  0
 10  9  1  0  0  0
  9  1  1  0  0  0
  1  2  1  0  0  0
  2  3  2  0  0  0
  2  4  1  0  0  0
  4  5  1  0  0  0
  5  6  1  0  0  0
  5  7  2  0  0  0
  6  8  1  0  0  0
M  END
> <minimizedAffinity>
-3.67694

> <CNNscore>
0.3149993718

> <CNNaffinity>
3.8418135643

> <CNN_VS>
1.2101688385

> <CNNaffinity_variance>
0.1179348081

$$$$
[H]OC(=O)C([H])([H])C(=O)OSC([H])([H])C([H])([H])C([H])([H])OC([H])([H])C([H])([H])[H]


 15 14  0  0  0  0  0  0  0  0999 V2000
    0.0271  -51.4790  -19.7377 O   0  0  0  0  0  0  0  0  0  0  0  0
    1.0586  -50.7563  -20.3110 C   0  0  0  0  0  0  0  0  0  0  0  0
    2.2552  -50.9736  -19.9939 O   0  0  0  0  0  0  0  0  0  0  0  0
    0.8109  -49.6906  -21.3265 C   0  0  0  0  0  0  0  0  0  0  0  0
    1.5838  -48.4825  -20.9420 C   0  0  0  0  0  0  0  0  0  0  0  0
    1.6923  -48.1874  -19.5873 O   0  0  0  0  0  0  0  0  0  0  0  0
    2.1119  -47.7682  -21.8279 O   0  0  0  0  0  0  0  0  0  0  0  0
    2.0568  -48.8586  -18.9449 H   0  0  0  0  0  0  0  0  0  0  0  0
    0.0053  -53.1906  -19.7760 S   0  0  0  0  0  0  0  0  0  0  0  0
   -1.2638  -53.8991  -20.8113 C   0  0  0  0  0  0  0  0  0  0  0  0
   -0.6239  -54.3214  -22.1265 C   0  0  0  0  0  0  0  0  0  0  0  0
   -0.4818  -53.0272  -22.9372 C   0  0  0  0  0  0  0  0  0  0  0  0
    0.8178  -53.0301  -23.4301 O   0  0  0  0  0  0  0  0  0  0  0  0
   -0.2547  -51.9406  -25.3022 C   0  0  0  0  0  0  0  0  0  0  0  0
    0.9742  -52.1485  -24.4762 C   0  0  0  0  0  0  0  0  0  0  0  0
 14 15  1  0  0  0
 15 13  1  0  0  0
 13 12  1  0  0  0
 12 11  1  0  0  0
 11 10  1  0  0  0
 10  9  1  0  0  0
  9  1  1  0  0  0
  1  2  1  0  0  0
  2  3  2  0  0  0
  2  4  1  0  0  0
  4  5  1  0  0  0
  5  6  1  0  0  0
  5  7  2  0  0  0
  6  8  1  0  0  0
M  END
> <minimizedAffinity>
-3.56839

> <CNNscore>
0.3016053140

> <CNNaffinity>
3.8662819862

> <CNN_VS>
1.1660912037

> <CNNaffinity_variance>
0.1338720620

$$$$
[H]OC(=O)C([H])([H])C(=O)OSC([H])([H])C([H])([H])C([H])([H])OC([H])([H])C([H])([H])[H]


 15 14  0  0  0  0  0  0  0  0999 V2000
   -1.4058  -55.1450  -22.2505 O   0  0  0  0  0  0  0  0  0  0  0  0
   -1.0466  -54.9457  -23.5720 C   0  0  0  0  0  0  0  0  0  0  0  0
   -1.1603  -55.8668  -24.4195 O   0  0  0  0  0  0  0  0  0  0  0  0
   -0.5102  -53.6406  -24.0594 C   0  0  0  0  0  0  0  0  0  0  0  0
   -0.2961  -53.7355  -25.5257 C   0  0  0  0  0  0  0  0  0  0  0  0
    0.8298  -54.4186  -25.9726 O   0  0  0  0  0  0  0  0  0  0  0  0
   -1.1177  -53.2093  -26.3142 O   0  0  0  0  0  0  0  0  0  0  0  0
    1.0003  -55.3617  -25.6943 H   0  0  0  0  0  0  0  0  0  0  0  0
   -1.4355  -53.8531  -21.1274 S   0  0  0  0  0  0  0  0  0  0  0  0
    0.1276  -53.5147  -20.3357 C   0  0  0  0  0  0  0  0  0  0  0  0
    0.0929  -52.0884  -19.8045 C   0  0  0  0  0  0  0  0  0  0  0  0
    0.0292  -51.1974  -21.0512 C   0  0  0  0  0  0  0  0  0  0  0  0
    0.8998  -50.1418  -20.8069 O   0  0  0  0  0  0  0  0  0  0  0  0
    1.5923  -50.6788  -23.0595 C   0  0  0  0  0  0  0  0  0  0  0  0
    1.4712  -49.6663  -21.9659 C   0  0  0  0  0  0  0  0  0  0  0  0
 14 15  1  0  0  0
 15 13  1  0  0  0
 13 12  1  0  0  0
 12 11  1  0  0  0
 11 10  1  0  0  0
 10  9  1  0  0  0
  9  1  1  0  0  0
  1  2  1  0  0  0
  2  3  2  0  0  0
  2  4  1  0  0  0
  4  5  1  0  0  0
  5  6  1  0  0  0
  5  7  2  0  0  0
  6  8  1  0  0  0
M  END
> <minimizedAffinity>
-4.31220

> <CNNscore>
0.2847141325

> <CNNaffinity>
4.0592303276

> <CNN_VS>
1.1557202339

> <CNNaffinity_variance>
0.1010771245

$$$$
[H]c1c([H])c(-c2c([H])n([H])c3c(=O)c4sc(C([H])([H])[H])nc4n([H])c(=O)c23)c([H])c([H])c1F


 25 28  0  0  0  0  0  0  0  0999 V2000
    0.2151  -54.3613  -27.0664 C   0  0  0  0  0  0  0  0  0  0  0  0
    0.0579  -54.0397  -25.6010 C   0  0  0  0  0  0  0  0  0  0  0  0
    0.7058  -53.1382  -24.8814 N   0  0  0  0  0  0  0  0  0  0  0  0
    0.4352  -52.9993  -23.6176 C   0  0  0  0  0  0  0  0  0  0  0  0
    1.1248  -52.0486  -22.8935 N   0  0  0  0  0  0  0  0  0  0  0  0
    0.8852  -51.5601  -21.6807 C   0  0  0  0  0  0  0  0  0  0  0  0
    1.1890  -50.3445  -21.4509 O   0  0  0  0  0  0  0  0  0  0  0  0
    0.3250  -52.2243  -20.5918 C   0  0  0  0  0  0  0  0  0  0  0  0
    0.5592  -51.8931  -19.2801 C   0  0  0  0  0  0  0  0  0  0  0  0
   -0.2262  -52.7920  -18.5431 C   0  0  0  0  0  0  0  0  0  0  0  0
   -0.8854  -53.6092  -19.3800 N   0  0  0  0  0  0  0  0  0  0  0  0
   -0.5713  -53.2900  -20.6267 C   0  0  0  0  0  0  0  0  0  0  0  0
   -1.0289  -53.9007  -21.7829 C   0  0  0  0  0  0  0  0  0  0  0  0
   -2.0190  -54.6332  -21.6743 O   0  0  0  0  0  0  0  0  0  0  0  0
   -0.5292  -53.8129  -23.0835 C   0  0  0  0  0  0  0  0  0  0  0  0
   -0.9938  -54.7370  -24.4433 S   0  0  0  0  0  0  0  0  0  0  0  0
    1.9714  -51.6323  -23.3571 H   0  0  0  0  0  0  0  0  0  0  0  0
   -1.5571  -54.3937  -19.1277 H   0  0  0  0  0  0  0  0  0  0  0  0
    1.4398  -50.8821  -18.7334 C   0  0  0  0  0  0  0  0  0  0  0  0
    1.0064  -49.6755  -18.2296 C   0  0  0  0  0  0  0  0  0  0  0  0
    1.8891  -48.7471  -17.7202 C   0  0  0  0  0  0  0  0  0  0  0  0
    3.2480  -49.0283  -17.7115 C   0  0  0  0  0  0  0  0  0  0  0  0
    4.1703  -48.1590  -17.2249 F   0  0  0  0  0  0  0  0  0  0  0  0
    3.7169  -50.2247  -18.2071 C   0  0  0  0  0  0  0  0  0  0  0  0
    2.8057  -51.1168  -18.7030 C   0  0  0  0  0  0  0  0  0  0  0  0
  1  2  1  0  0  0
  2  3  2  0  0  0
  3  4  1  0  0  0
  4  5  1  0  0  0
  5  6  1  0  0  0
  6  7  2  0  0  0
  6  8  1  0  0  0
  8  9  1  0  0  0
  9 10  2  0  0  0
 10 11  1  0  0  0
 11 12  1  0  0  0
 12 13  1  0  0  0
 13 14  2  0  0  0
 13 15  1  0  0  0
 15 16  1  0  0  0
  9 19  1  0  0  0
 19 20  2  0  0  0
 20 21  1  0  0  0
 21 22  2  0  0  0
 22 23  1  0  0  0
 22 24  1  0  0  0
 24 25  2  0  0  0
 16  2  1  0  0  0
 25 19  1  0  0  0
 15  4  2  0  0  0
 12  8  2  0  0  0
  5 17  1  0  0  0
 11 18  1  0  0  0
M  END
> <minimizedAffinity>
-7.38774

> <CNNscore>
0.8640732765

> <CNNaffinity>
6.5216751099

> <CNN_VS>
5.6352052689

> <CNNaffinity_variance>
0.1030531898

$$$$
[H]c1c([H])c(-c2c([H])n([H])c3c(=O)c4sc(C([H])([H])[H])nc4n([H])c(=O)c23)c([H])c([H])c1F


 25 28  0  0  0  0  0  0  0  0999 V2000
    1.0123  -53.4493  -25.6568 C   0  0  0  0  0  0  0  0  0  0  0  0
    0.5927  -53.2551  -24.2210 C   0  0  0  0  0  0  0  0  0  0  0  0
    1.0528  -52.3828  -23.3391 N   0  0  0  0  0  0  0  0  0  0  0  0
    0.5668  -52.3599  -22.1337 C   0  0  0  0  0  0  0  0  0  0  0  0
    1.0640  -51.4369  -21.2367 N   0  0  0  0  0  0  0  0  0  0  0  0
    0.5948  -51.0603  -20.0515 C   0  0  0  0  0  0  0  0  0  0  0  0
    0.7782  -49.8534  -19.6876 O   0  0  0  0  0  0  0  0  0  0  0  0
   -0.0960  -51.8375  -19.1243 C   0  0  0  0  0  0  0  0  0  0  0  0
   -0.1055  -51.6015  -17.7719 C   0  0  0  0  0  0  0  0  0  0  0  0
   -0.9443  -52.5954  -17.2458 C   0  0  0  0  0  0  0  0  0  0  0  0
   -1.4013  -53.3749  -18.2388 N   0  0  0  0  0  0  0  0  0  0  0  0
   -0.9044  -52.9409  -19.3876 C   0  0  0  0  0  0  0  0  0  0  0  0
   -1.1229  -53.4790  -20.6453 C   0  0  0  0  0  0  0  0  0  0  0  0
   -2.0687  -54.2669  -20.7599 O   0  0  0  0  0  0  0  0  0  0  0  0
   -0.4197  -53.2616  -21.8316 C   0  0  0  0  0  0  0  0  0  0  0  0
   -0.5911  -54.0956  -23.3128 S   0  0  0  0  0  0  0  0  0  0  0  0
    1.9480  -50.9423  -21.5179 H   0  0  0  0  0  0  0  0  0  0  0  0
   -2.0544  -54.2101  -18.1615 H   0  0  0  0  0  0  0  0  0  0  0  0
    0.6054  -50.5945  -17.0123 C   0  0  0  0  0  0  0  0  0  0  0  0
    1.9626  -50.6229  -16.7786 C   0  0  0  0  0  0  0  0  0  0  0  0
    2.5899  -49.6368  -16.0475 C   0  0  0  0  0  0  0  0  0  0  0  0
    1.8424  -48.5875  -15.5316 C   0  0  0  0  0  0  0  0  0  0  0  0
    2.3970  -47.5847  -14.8036 F   0  0  0  0  0  0  0  0  0  0  0  0
    0.4832  -48.5269  -15.7455 C   0  0  0  0  0  0  0  0  0  0  0  0
   -0.0981  -49.5268  -16.4766 C   0  0  0  0  0  0  0  0  0  0  0  0
  1  2  1  0  0  0
  2  3  2  0  0  0
  3  4  1  0  0  0
  4  5  1  0  0  0
  5  6  1  0  0  0
  6  7  2  0  0  0
  6  8  1  0  0  0
  8  9  1  0  0  0
  9 10  2  0  0  0
 10 11  1  0  0  0
 11 12  1  0  0  0
 12 13  1  0  0  0
 13 14  2  0  0  0
 13 15  1  0  0  0
 15 16  1  0  0  0
  9 19  1  0  0  0
 19 20  2  0  0  0
 20 21  1  0  0  0
 21 22  2  0  0  0
 22 23  1  0  0  0
 22 24  1  0  0  0
 24 25  2  0  0  0
 16  2  1  0  0  0
 25 19  1  0  0  0
 15  4  2  0  0  0
 12  8  2  0  0  0
  5 17  1  0  0  0
 11 18  1  0  0  0
M  END
> <minimizedAffinity>
-7.38262

> <CNNscore>
0.7175098658

> <CNNaffinity>
6.2446446419

> <CNN_VS>
4.4805941582

> <CNNaffinity_variance>
0.1317744255

$$$$
[H]c1c([H])c(-c2c([H])n([H])c3c(=O)c4sc(C([H])([H])[H])nc4n([H])c(=O)c23)c([H])c([H])c1F


 25 28  0  0  0  0  0  0  0  0999 V2000
   -1.2392  -51.6721  -15.3732 C   0  0  0  0  0  0  0  0  0  0  0  0
   -0.9295  -52.0091  -16.8105 C   0  0  0  0  0  0  0  0  0  0  0  0
    0.0486  -51.5478  -17.5725 N   0  0  0  0  0  0  0  0  0  0  0  0
    0.1618  -51.9553  -18.8017 C   0  0  0  0  0  0  0  0  0  0  0  0
    1.1939  -51.4591  -19.5713 N   0  0  0  0  0  0  0  0  0  0  0  0
    1.6576  -51.8731  -20.7462 C   0  0  0  0  0  0  0  0  0  0  0  0
    2.9025  -51.7415  -20.9819 O   0  0  0  0  0  0  0  0  0  0  0  0
    0.9374  -52.4530  -21.7882 C   0  0  0  0  0  0  0  0  0  0  0  0
    1.3030  -52.3896  -23.1100 C   0  0  0  0  0  0  0  0  0  0  0  0
    0.3202  -53.1296  -23.7843 C   0  0  0  0  0  0  0  0  0  0  0  0
   -0.5764  -53.6008  -22.9030 N   0  0  0  0  0  0  0  0  0  0  0  0
   -0.2295  -53.2070  -21.6867 C   0  0  0  0  0  0  0  0  0  0  0  0
   -0.8988  -53.4727  -20.5032 C   0  0  0  0  0  0  0  0  0  0  0  0
   -1.7454  -54.3734  -20.5294 O   0  0  0  0  0  0  0  0  0  0  0  0
   -0.7594  -52.8625  -19.2552 C   0  0  0  0  0  0  0  0  0  0  0  0
   -1.7419  -53.0775  -17.8742 S   0  0  0  0  0  0  0  0  0  0  0  0
    1.7069  -50.6275  -19.1837 H   0  0  0  0  0  0  0  0  0  0  0  0
   -1.4351  -54.1946  -23.1037 H   0  0  0  0  0  0  0  0  0  0  0  0
    2.4170  -51.6947  -23.7203 C   0  0  0  0  0  0  0  0  0  0  0  0
    3.5945  -52.3057  -24.0915 C   0  0  0  0  0  0  0  0  0  0  0  0
    4.6250  -51.5956  -24.6697 C   0  0  0  0  0  0  0  0  0  0  0  0
    4.4794  -50.2326  -24.8860 C   0  0  0  0  0  0  0  0  0  0  0  0
    5.4542  -49.4747  -25.4506 F   0  0  0  0  0  0  0  0  0  0  0  0
    3.3159  -49.5887  -24.5274 C   0  0  0  0  0  0  0  0  0  0  0  0
    2.3192  -50.3322  -23.9565 C   0  0  0  0  0  0  0  0  0  0  0  0
  1  2  1  0  0  0
  2  3  2  0  0  0
  3  4  1  0  0  0
  4  5  1  0  0  0
  5  6  1  0  0  0
  6  7  2  0  0  0
  6  8  1  0  0  0
  8  9  1  0  0  0
  9 10  2  0  0  0
 10 11  1  0  0  0
 11 12  1  0  0  0
 12 13  1  0  0  0
 13 14  2  0  0  0
 13 15  1  0  0  0
 15 16  1  0  0  0
  9 19  1  0  0  0
 19 20  2  0  0  0
 20 21  1  0  0  0
 21 22  2  0  0  0
 22 23  1  0  0  0
 22 24  1  0  0  0
 24 25  2  0  0  0
 16  2  1  0  0  0
 25 19  1  0  0  0
 15  4  2  0  0  0
 12  8  2  0  0  0
  5 17  1  0  0  0
 11 18  1  0  0  0
M  END
> <minimizedAffinity>
-7.39600

> <CNNscore>
0.5863332152

> <CNNaffinity>
6.1319570541

> <CNN_VS>
3.5953700542

> <CNNaffinity_variance>
0.0865313038

$$$$
[H]c1c([H])c(-c2c([H])n([H])c3c(=O)c4sc(C([H])([H])[H])nc4n([H])c(=O)c23)c([H])c([H])c1F


 25 28  0  0  0  0  0  0  0  0999 V2000
    2.3711  -48.6592  -18.5143 C   0  0  0  0  0  0  0  0  0  0  0  0
    1.8599  -49.7691  -19.3988 C   0  0  0  0  0  0  0  0  0  0  0  0
    1.7535  -49.7890  -20.7173 N   0  0  0  0  0  0  0  0  0  0  0  0
    1.2856  -50.8441  -21.3154 C   0  0  0  0  0  0  0  0  0  0  0  0
    1.1894  -50.8369  -22.6918 N   0  0  0  0  0  0  0  0  0  0  0  0
    0.9703  -51.8390  -23.5371 C   0  0  0  0  0  0  0  0  0  0  0  0
    1.5144  -51.7855  -24.6876 O   0  0  0  0  0  0  0  0  0  0  0  0
    0.1994  -52.9794  -23.3226 C   0  0  0  0  0  0  0  0  0  0  0  0
   -0.4136  -53.6971  -24.3196 C   0  0  0  0  0  0  0  0  0  0  0  0
   -1.0384  -54.7628  -23.6548 C   0  0  0  0  0  0  0  0  0  0  0  0
   -0.8050  -54.6731  -22.3357 N   0  0  0  0  0  0  0  0  0  0  0  0
   -0.0590  -53.6032  -22.1042 C   0  0  0  0  0  0  0  0  0  0  0  0
    0.3899  -53.1517  -20.8739 C   0  0  0  0  0  0  0  0  0  0  0  0
    0.3236  -53.9458  -19.9285 O   0  0  0  0  0  0  0  0  0  0  0  0
    0.9181  -51.9057  -20.5310 C   0  0  0  0  0  0  0  0  0  0  0  0
    1.2709  -51.3179  -18.9661 S   0  0  0  0  0  0  0  0  0  0  0  0
    1.3082  -49.9047  -23.1630 H   0  0  0  0  0  0  0  0  0  0  0  0
   -1.1423  -55.3288  -21.5698 H   0  0  0  0  0  0  0  0  0  0  0  0
   -0.4657  -53.4300  -25.7418 C   0  0  0  0  0  0  0  0  0  0  0  0
   -1.2613  -52.4621  -26.3140 C   0  0  0  0  0  0  0  0  0  0  0  0
   -1.2725  -52.2494  -27.6761 C   0  0  0  0  0  0  0  0  0  0  0  0
   -0.4654  -53.0252  -28.4961 C   0  0  0  0  0  0  0  0  0  0  0  0
   -0.4285  -52.8680  -29.8441 F   0  0  0  0  0  0  0  0  0  0  0  0
    0.3429  -54.0022  -27.9584 C   0  0  0  0  0  0  0  0  0  0  0  0
    0.3225  -54.1791  -26.6018 C   0  0  0  0  0  0  0  0  0  0  0  0
  1  2  1  0  0  0
  2  3  2  0  0  0
  3  4  1  0  0  0
  4  5  1  0  0  0
  5  6  1  0  0  0
  6  7  2  0  0  0
  6  8  1  0  0  0
  8  9  1  0  0  0
  9 10  2  0  0  0
 10 11  1  0  0  0
 11 12  1  0  0  0
 12 13  1  0  0  0
 13 14  2  0  0  0
 13 15  1  0  0  0
 15 16  1  0  0  0
  9 19  1  0  0  0
 19 20  2  0  0  0
 20 21  1  0  0  0
 21 22  2  0  0  0
 22 23  1  0  0  0
 22 24  1  0  0  0
 24 25  2  0  0  0
 16  2  1  0  0  0
 25 19  1  0  0  0
 15  4  2  0  0  0
 12  8  2  0  0  0
  5 17  1  0  0  0
 11 18  1  0  0  0
M  END
> <minimizedAffinity>
-8.76664

> <CNNscore>
0.5789355040

> <CNNaffinity>
6.5227746964

> <CNN_VS>
3.7762658596

> <CNNaffinity_variance>
0.1967211068

$$$$
[H]c1c([H])c(-c2c([H])n([H])c3c(=O)c4sc(C([H])([H])[H])nc4n([H])c(=O)c23)c([H])c([H])c1F


 25 28  0  0  0  0  0  0  0  0999 V2000
    1.0312  -53.2314  -28.8550 C   0  0  0  0  0  0  0  0  0  0  0  0
    0.7470  -53.2841  -27.3745 C   0  0  0  0  0  0  0  0  0  0  0  0
    1.2006  -52.4886  -26.4198 N   0  0  0  0  0  0  0  0  0  0  0  0
    0.8450  -52.6870  -25.1853 C   0  0  0  0  0  0  0  0  0  0  0  0
    1.3315  -51.8391  -24.2117 N   0  0  0  0  0  0  0  0  0  0  0  0
    0.9521  -51.6849  -22.9471 C   0  0  0  0  0  0  0  0  0  0  0  0
    1.0414  -50.5244  -22.4294 O   0  0  0  0  0  0  0  0  0  0  0  0
    0.4511  -52.6577  -22.0850 C   0  0  0  0  0  0  0  0  0  0  0  0
    0.5589  -52.6083  -20.7172 C   0  0  0  0  0  0  0  0  0  0  0  0
   -0.1074  -53.7584  -20.2685 C   0  0  0  0  0  0  0  0  0  0  0  0
   -0.5798  -54.4474  -21.3195 N   0  0  0  0  0  0  0  0  0  0  0  0
   -0.2567  -53.8060  -22.4326 C   0  0  0  0  0  0  0  0  0  0  0  0
   -0.5473  -54.1930  -23.7307 C   0  0  0  0  0  0  0  0  0  0  0  0
   -1.4093  -55.0677  -23.8738 O   0  0  0  0  0  0  0  0  0  0  0  0
   -0.0009  -53.7344  -24.9308 C   0  0  0  0  0  0  0  0  0  0  0  0
   -0.2366  -54.3768  -26.4962 S   0  0  0  0  0  0  0  0  0  0  0  0
    2.1223  -51.2073  -24.4957 H   0  0  0  0  0  0  0  0  0  0  0  0
   -1.1270  -55.3588  -21.3065 H   0  0  0  0  0  0  0  0  0  0  0  0
    1.2331  -51.6333  -19.8857 C   0  0  0  0  0  0  0  0  0  0  0  0
    0.5918  -50.6018  -19.2358 C   0  0  0  0  0  0  0  0  0  0  0  0
    1.2832  -49.7000  -18.4552 C   0  0  0  0  0  0  0  0  0  0  0  0
    2.6579  -49.8283  -18.3165 C   0  0  0  0  0  0  0  0  0  0  0  0
    3.3986  -48.9753  -17.5635 F   0  0  0  0  0  0  0  0  0  0  0  0
    3.3320  -50.8475  -18.9519 C   0  0  0  0  0  0  0  0  0  0  0  0
    2.6063  -51.7198  -19.7166 C   0  0  0  0  0  0  0  0  0  0  0  0
  1  2  1  0  0  0
  2  3  2  0  0  0
  3  4  1  0  0  0
  4  5  1  0  0  0
  5  6  1  0  0  0
  6  7  2  0  0  0
  6  8  1  0  0  0
  8  9  1  0  0  0
  9 10  2  0  0  0
 10 11  1  0  0  0
 11 12  1  0  0  0
 12 13  1  0  0  0
 13 14  2  0  0  0
 13 15  1  0  0  0
 15 16  1  0  0  0
  9 19  1  0  0  0
 19 20  2  0  0  0
 20 21  1  0  0  0
 21 22  2  0  0  0
 22 23  1  0  0  0
 22 24  1  0  0  0
 24 25  2  0  0  0
 16  2  1  0  0  0
 25 19  1  0  0  0
 15  4  2  0  0  0
 12  8  2  0  0  0
  5 17  1  0  0  0
 11 18  1  0  0  0
M  END
> <minimizedAffinity>
-7.68491

> <CNNscore>
0.4120175540

> <CNNaffinity>
6.3263435364

> <CNN_VS>
2.6065645218

> <CNNaffinity_variance>
0.2209044993

$$$$
[H]c1c([H])c(-c2c([H])n([H])c3c(=O)c4sc(C([H])([H])[H])nc4n([H])c(=O)c23)c([H])c([H])c1F


 25 28  0  0  0  0  0  0  0  0999 V2000
   -0.5845  -54.2721  -24.4894 C   0  0  0  0  0  0  0  0  0  0  0  0
   -0.2585  -53.4922  -23.2400 C   0  0  0  0  0  0  0  0  0  0  0  0
   -0.7777  -53.6203  -22.0300 N   0  0  0  0  0  0  0  0  0  0  0  0
   -0.3701  -52.8525  -21.0635 C   0  0  0  0  0  0  0  0  0  0  0  0
   -0.9276  -53.0116  -19.8115 N   0  0  0  0  0  0  0  0  0  0  0  0
   -0.5368  -52.5298  -18.6359 C   0  0  0  0  0  0  0  0  0  0  0  0
   -0.7482  -53.2350  -17.5963 O   0  0  0  0  0  0  0  0  0  0  0  0
    0.0964  -51.3150  -18.3827 C   0  0  0  0  0  0  0  0  0  0  0  0
    0.0183  -50.6358  -17.1921 C   0  0  0  0  0  0  0  0  0  0  0  0
    0.8258  -49.5037  -17.3777 C   0  0  0  0  0  0  0  0  0  0  0  0
    1.3488  -49.5179  -18.6142 N   0  0  0  0  0  0  0  0  0  0  0  0
    0.9246  -50.6020  -19.2464 C   0  0  0  0  0  0  0  0  0  0  0  0
    1.2255  -50.9797  -20.5449 C   0  0  0  0  0  0  0  0  0  0  0  0
    2.1800  -50.4100  -21.0861 O   0  0  0  0  0  0  0  0  0  0  0  0
    0.5988  -51.9286  -21.3548 C   0  0  0  0  0  0  0  0  0  0  0  0
    0.8682  -52.2221  -23.0161 S   0  0  0  0  0  0  0  0  0  0  0  0
   -1.7938  -53.6048  -19.7584 H   0  0  0  0  0  0  0  0  0  0  0  0
    1.9991  -48.8006  -19.0532 H   0  0  0  0  0  0  0  0  0  0  0  0
   -0.7440  -50.9549  -16.0033 C   0  0  0  0  0  0  0  0  0  0  0  0
   -0.1984  -51.5048  -14.8642 C   0  0  0  0  0  0  0  0  0  0  0  0
   -0.9711  -51.7895  -13.7586 C   0  0  0  0  0  0  0  0  0  0  0  0
   -2.3318  -51.5181  -13.7869 C   0  0  0  0  0  0  0  0  0  0  0  0
   -3.1492  -51.7737  -12.7335 F   0  0  0  0  0  0  0  0  0  0  0  0
   -2.9113  -50.9685  -14.9089 C   0  0  0  0  0  0  0  0  0  0  0  0
   -2.1070  -50.7021  -15.9833 C   0  0  0  0  0  0  0  0  0  0  0  0
  1  2  1  0  0  0
  2  3  2  0  0  0
  3  4  1  0  0  0
  4  5  1  0  0  0
  5  6  1  0  0  0
  6  7  2  0  0  0
  6  8  1  0  0  0
  8  9  1  0  0  0
  9 10  2  0  0  0
 10 11  1  0  0  0
 11 12  1  0  0  0
 12 13  1  0  0  0
 13 14  2  0  0  0
 13 15  1  0  0  0
 15 16  1  0  0  0
  9 19  1  0  0  0
 19 20  2  0  0  0
 20 21  1  0  0  0
 21 22  2  0  0  0
 22 23  1  0  0  0
 22 24  1  0  0  0
 24 25  2  0  0  0
 16  2  1  0  0  0
 25 19  1  0  0  0
 15  4  2  0  0  0
 12  8  2  0  0  0
  5 17  1  0  0  0
 11 18  1  0  0  0
M  END
> <minimizedAffinity>
-6.48550

> <CNNscore>
0.3969737291

> <CNNaffinity>
5.9382219315

> <CNN_VS>
2.3573181629

> <CNNaffinity_variance>
0.3008138537

$$$$
[H]c1c([H])c(-c2c([H])n([H])c3c(=O)c4sc(C([H])([H])[H])nc4n([H])c(=O)c23)c([H])c([H])c1F


 25 28  0  0  0  0  0  0  0  0999 V2000
    3.1915  -51.3729  -14.7271 C   0  0  0  0  0  0  0  0  0  0  0  0
    2.8995  -51.2712  -16.2035 C   0  0  0  0  0  0  0  0  0  0  0  0
    3.6083  -50.6681  -17.1438 N   0  0  0  0  0  0  0  0  0  0  0  0
    3.1977  -50.6834  -18.3771 C   0  0  0  0  0  0  0  0  0  0  0  0
    3.9597  -50.0487  -19.3365 N   0  0  0  0  0  0  0  0  0  0  0  0
    3.8882  -50.1119  -20.6623 C   0  0  0  0  0  0  0  0  0  0  0  0
    4.9682  -50.0030  -21.3289 O   0  0  0  0  0  0  0  0  0  0  0  0
    2.7496  -50.2894  -21.4450 C   0  0  0  0  0  0  0  0  0  0  0  0
    2.6241  -49.8474  -22.7388 C   0  0  0  0  0  0  0  0  0  0  0  0
    1.3467  -50.2713  -23.1346 C   0  0  0  0  0  0  0  0  0  0  0  0
    0.7534  -50.9264  -22.1240 N   0  0  0  0  0  0  0  0  0  0  0  0
    1.5780  -50.9529  -21.0877 C   0  0  0  0  0  0  0  0  0  0  0  0
    1.3387  -51.5224  -19.8477 C   0  0  0  0  0  0  0  0  0  0  0  0
    0.3878  -52.3084  -19.7674 O   0  0  0  0  0  0  0  0  0  0  0  0
    2.0247  -51.3385  -18.6457 C   0  0  0  0  0  0  0  0  0  0  0  0
    1.5784  -51.8986  -17.0946 S   0  0  0  0  0  0  0  0  0  0  0  0
    4.7215  -49.4160  -18.9839 H   0  0  0  0  0  0  0  0  0  0  0  0
   -0.2143  -51.3667  -22.1139 H   0  0  0  0  0  0  0  0  0  0  0  0
    3.5546  -49.0792  -23.5391 C   0  0  0  0  0  0  0  0  0  0  0  0
    4.4146  -49.6325  -24.4620 C   0  0  0  0  0  0  0  0  0  0  0  0
    5.2815  -48.8536  -25.1984 C   0  0  0  0  0  0  0  0  0  0  0  0
    5.2935  -47.4787  -25.0106 C   0  0  0  0  0  0  0  0  0  0  0  0
    6.1214  -46.6546  -25.7023 F   0  0  0  0  0  0  0  0  0  0  0  0
    4.4474  -46.8913  -24.0963 C   0  0  0  0  0  0  0  0  0  0  0  0
    3.6036  -47.7021  -23.3872 C   0  0  0  0  0  0  0  0  0  0  0  0
  1  2  1  0  0  0
  2  3  2  0  0  0
  3  4  1  0  0  0
  4  5  1  0  0  0
  5  6  1  0  0  0
  6  7  2  0  0  0
  6  8  1  0  0  0
  8  9  1  0  0  0
  9 10  2  0  0  0
 10 11  1  0  0  0
 11 12  1  0  0  0
 12 13  1  0  0  0
 13 14  2  0  0  0
 13 15  1  0  0  0
 15 16  1  0  0  0
  9 19  1  0  0  0
 19 20  2  0  0  0
 20 21  1  0  0  0
 21 22  2  0  0  0
 22 23  1  0  0  0
 22 24  1  0  0  0
 24 25  2  0  0  0
 16  2  1  0  0  0
 25 19  1  0  0  0
 15  4  2  0  0  0
 12  8  2  0  0  0
  5 17  1  0  0  0
 11 18  1  0  0  0
M  END
> <minimizedAffinity>
-3.32031

> <CNNscore>
0.3931421340

> <CNNaffinity>
5.6493158340

> <CNN_VS>
2.2209839821

> <CNNaffinity_variance>
0.9971394539

$$$$
[H]c1c([H])c(-c2c([H])n([H])c3c(=O)c4sc(C([H])([H])[H])nc4n([H])c(=O)c23)c([H])c([H])c1F


 25 28  0  0  0  0  0  0  0  0999 V2000
   -1.4713  -52.8094  -28.3037 C   0  0  0  0  0  0  0  0  0  0  0  0
   -0.6818  -52.6844  -27.0244 C   0  0  0  0  0  0  0  0  0  0  0  0
   -1.1326  -52.5843  -25.7846 N   0  0  0  0  0  0  0  0  0  0  0  0
   -0.2955  -52.4838  -24.7952 C   0  0  0  0  0  0  0  0  0  0  0  0
   -0.7951  -52.3842  -23.5129 N   0  0  0  0  0  0  0  0  0  0  0  0
   -0.1736  -52.5004  -22.3436 C   0  0  0  0  0  0  0  0  0  0  0  0
   -0.8223  -52.9921  -21.3638 O   0  0  0  0  0  0  0  0  0  0  0  0
    1.1384  -52.1449  -22.0389 C   0  0  0  0  0  0  0  0  0  0  0  0
    1.5733  -51.7952  -20.7845 C   0  0  0  0  0  0  0  0  0  0  0  0
    2.9467  -51.5554  -20.9408 C   0  0  0  0  0  0  0  0  0  0  0  0
    3.2982  -51.7527  -22.2215 N   0  0  0  0  0  0  0  0  0  0  0  0
    2.2246  -52.1097  -22.9104 C   0  0  0  0  0  0  0  0  0  0  0  0
    2.1607  -52.3923  -24.2651 C   0  0  0  0  0  0  0  0  0  0  0  0
    3.2336  -52.5930  -24.8458 O   0  0  0  0  0  0  0  0  0  0  0  0
    1.0415  -52.4864  -25.0944 C   0  0  0  0  0  0  0  0  0  0  0  0
    1.0147  -52.6351  -26.7962 S   0  0  0  0  0  0  0  0  0  0  0  0
   -1.8246  -52.1902  -23.4269 H   0  0  0  0  0  0  0  0  0  0  0  0
    4.2643  -51.6514  -22.6534 H   0  0  0  0  0  0  0  0  0  0  0  0
    0.8159  -51.6524  -19.5587 C   0  0  0  0  0  0  0  0  0  0  0  0
    0.0753  -52.6649  -18.9898 C   0  0  0  0  0  0  0  0  0  0  0  0
   -0.6283  -52.4746  -17.8196 C   0  0  0  0  0  0  0  0  0  0  0  0
   -0.5940  -51.2361  -17.1946 C   0  0  0  0  0  0  0  0  0  0  0  0
   -1.2634  -50.9816  -16.0412 F   0  0  0  0  0  0  0  0  0  0  0  0
    0.1360  -50.2008  -17.7352 C   0  0  0  0  0  0  0  0  0  0  0  0
    0.8191  -50.4338  -18.8976 C   0  0  0  0  0  0  0  0  0  0  0  0
  1  2  1  0  0  0
  2  3  2  0  0  0
  3  4  1  0  0  0
  4  5  1  0  0  0
  5  6  1  0  0  0
  6  7  2  0  0  0
  6  8  1  0  0  0
  8  9  1  0  0  0
  9 10  2  0  0  0
 10 11  1  0  0  0
 11 12  1  0  0  0
 12 13  1  0  0  0
 13 14  2  0  0  0
 13 15  1  0  0  0
 15 16  1  0  0  0
  9 19  1  0  0  0
 19 20  2  0  0  0
 20 21  1  0  0  0
 21 22  2  0  0  0
 22 23  1  0  0  0
 22 24  1  0  0  0
 24 25  2  0  0  0
 16  2  1  0  0  0
 25 19  1  0  0  0
 15  4  2  0  0  0
 12  8  2  0  0  0
  5 17  1  0  0  0
 11 18  1  0  0  0
M  END
> <minimizedAffinity>
-7.58638

> <CNNscore>
0.3917120397

> <CNNaffinity>
6.4502892494

> <CNN_VS>
2.5266559124

> <CNNaffinity_variance>
0.2530338168

$$$$
[H]c1c([H])c(-c2c([H])n([H])c3c(=O)c4sc(C([H])([H])[H])nc4n([H])c(=O)c23)c([H])c([H])c1F


 25 28  0  0  0  0  0  0  0  0999 V2000
    4.0874  -51.5421  -15.6392 C   0  0  0  0  0  0  0  0  0  0  0  0
    3.4377  -51.5895  -16.9997 C   0  0  0  0  0  0  0  0  0  0  0  0
    3.9238  -51.1786  -18.1595 N   0  0  0  0  0  0  0  0  0  0  0  0
    3.2135  -51.3003  -19.2414 C   0  0  0  0  0  0  0  0  0  0  0  0
    3.7482  -50.8658  -20.4368 N   0  0  0  0  0  0  0  0  0  0  0  0
    3.3383  -51.0802  -21.6830 C   0  0  0  0  0  0  0  0  0  0  0  0
    4.2184  -51.1620  -22.6002 O   0  0  0  0  0  0  0  0  0  0  0  0
    2.0289  -51.2342  -22.1328 C   0  0  0  0  0  0  0  0  0  0  0  0
    1.6094  -50.9405  -23.4067 C   0  0  0  0  0  0  0  0  0  0  0  0
    0.2475  -51.2774  -23.4166 C   0  0  0  0  0  0  0  0  0  0  0  0
   -0.1129  -51.7429  -22.2100 N   0  0  0  0  0  0  0  0  0  0  0  0
    0.9442  -51.7280  -21.4117 C   0  0  0  0  0  0  0  0  0  0  0  0
    0.9894  -52.1173  -20.0829 C   0  0  0  0  0  0  0  0  0  0  0  0
    0.0388  -52.7876  -19.6639 O   0  0  0  0  0  0  0  0  0  0  0  0
    1.9690  -51.8607  -19.1219 C   0  0  0  0  0  0  0  0  0  0  0  0
    1.8941  -52.1824  -17.4456 S   0  0  0  0  0  0  0  0  0  0  0  0
    4.6157  -50.2757  -20.3729 H   0  0  0  0  0  0  0  0  0  0  0  0
   -1.0738  -52.0785  -21.9032 H   0  0  0  0  0  0  0  0  0  0  0  0
    2.3562  -50.3721  -24.5093 C   0  0  0  0  0  0  0  0  0  0  0  0
    2.8485  -51.1074  -25.5650 C   0  0  0  0  0  0  0  0  0  0  0  0
    3.5542  -50.5149  -26.5903 C   0  0  0  0  0  0  0  0  0  0  0  0
    3.7776  -49.1455  -26.5648 C   0  0  0  0  0  0  0  0  0  0  0  0
    4.4641  -48.4994  -27.5418 F   0  0  0  0  0  0  0  0  0  0  0  0
    3.3000  -48.3791  -25.5249 C   0  0  0  0  0  0  0  0  0  0  0  0
    2.6050  -49.0084  -24.5284 C   0  0  0  0  0  0  0  0  0  0  0  0
  1  2  1  0  0  0
  2  3  2  0  0  0
  3  4  1  0  0  0
  4  5  1  0  0  0
  5  6  1  0  0  0
  6  7  2  0  0  0
  6  8  1  0  0  0
  8  9  1  0  0  0
  9 10  2  0  0  0
 10 11  1  0  0  0
 11 12  1  0  0  0
 12 13  1  0  0  0
 13 14  2  0  0  0
 13 15  1  0  0  0
 15 16  1  0  0  0
  9 19  1  0  0  0
 19 20  2  0  0  0
 20 21  1  0  0  0
 21 22  2  0  0  0
 22 23  1  0  0  0
 22 24  1  0  0  0
 24 25  2  0  0  0
 16  2  1  0  0  0
 25 19  1  0  0  0
 15  4  2  0  0  0
 12  8  2  0  0  0
  5 17  1  0  0  0
 11 18  1  0  0  0
M  END
> <minimizedAffinity>
-1.69527

> <CNNscore>
0.3826577067

> <CNNaffinity>
5.9265365601

> <CNN_VS>
2.2678349018

> <CNNaffinity_variance>
1.4303534031

$$$$
[H]OC([H])([H])[C@@]1([H])O[C@@]([H])(n2c([H])nc3c(N([H])[H])nc([H])nc32)[C@@]([H])(O[H])[C@]1([H])O[H]


 24 26  0  0  0  0  0  0  0  0999 V2000
   -1.5652  -55.7706  -24.0550 N   0  0  0  0  0  0  0  0  0  0  0  0
   -0.8566  -54.5784  -23.7981 C   0  0  0  0  0  0  0  0  0  0  0  0
   -0.1767  -53.9136  -24.7522 N   0  0  0  0  0  0  0  0  0  0  0  0
    0.4641  -52.7859  -24.3958 C   0  0  0  0  0  0  0  0  0  0  0  0
    0.4470  -52.3102  -23.1374 N   0  0  0  0  0  0  0  0  0  0  0  0
   -0.2248  -52.9428  -22.1339 C   0  0  0  0  0  0  0  0  0  0  0  0
   -0.4009  -52.6923  -20.8269 N   0  0  0  0  0  0  0  0  0  0  0  0
   -1.1677  -53.6772  -20.3403 C   0  0  0  0  0  0  0  0  0  0  0  0
   -1.4553  -54.5204  -21.3452 N   0  0  0  0  0  0  0  0  0  0  0  0
   -0.8855  -54.1006  -22.4893 C   0  0  0  0  0  0  0  0  0  0  0  0
   -2.5884  -55.7896  -24.3030 H   0  0  0  0  0  0  0  0  0  0  0  0
   -1.0806  -56.6874  -24.0044 H   0  0  0  0  0  0  0  0  0  0  0  0
    0.1305  -51.5951  -20.1258 C   0  0  0  0  0  0  0  0  0  0  0  0
    0.1825  -50.4010  -20.8325 O   0  0  0  0  0  0  0  0  0  0  0  0
    0.9171  -49.5347  -20.0576 C   0  0  0  0  0  0  0  0  0  0  0  0
    1.7540  -50.3546  -19.1037 C   0  0  0  0  0  0  0  0  0  0  0  0
    1.1234  -50.4251  -17.8697 O   0  0  0  0  0  0  0  0  0  0  0  0
    1.5887  -51.7442  -19.7411 C   0  0  0  0  0  0  0  0  0  0  0  0
    2.4250  -51.7345  -20.8548 O   0  0  0  0  0  0  0  0  0  0  0  0
    0.9045  -49.5535  -17.4911 H   0  0  0  0  0  0  0  0  0  0  0  0
    1.8738  -51.4999  -21.6601 H   0  0  0  0  0  0  0  0  0  0  0  0
    1.8400  -48.6447  -20.8734 C   0  0  0  0  0  0  0  0  0  0  0  0
    1.7672  -49.0919  -22.1881 O   0  0  0  0  0  0  0  0  0  0  0  0
    2.6442  -49.0835  -22.6397 H   0  0  0  0  0  0  0  0  0  0  0  0
  1  2  1  0  0  0
  2  3  2  0  0  0
  3  4  1  0  0  0
  4  5  2  0  0  0
  5  6  1  0  0  0
  6  7  1  0  0  0
  7  8  1  0  0  0
  8  9  2  0  0  0
  9 10  1  0  0  0
  7 13  1  0  0  0
 13 14  1  0  0  0
 14 15  1  0  0  0
 15 22  1  0  0  0
 22 23  1  0  0  0
 15 16  1  0  0  0
 16 17  1  0  0  0
 16 18  1  0  0  0
 18 19  1  0  0  0
 10  2  1  0  0  0
 18 13  1  0  0  0
 10  6  2  0  0  0
  1 11  1  0  0  0
  1 12  1  0  0  0
 23 24  1  0  0  0
 17 20  1  0  0  0
 19 21  1  0  0  0
M  END
> <minimizedAffinity>
-6.28557

> <CNNscore>
0.9425160289

> <CNNaffinity>
4.8216362000

> <CNN_VS>
4.5444693565

> <CNNaffinity_variance>
0.2059612274

$$$$
[H]OC([H])([H])[C@@]1([H])O[C@@]([H])(n2c([H])nc3c(N([H])[H])nc([H])nc32)[C@@]([H])(O[H])[C@]1([H])O[H]


 24 26  0  0  0  0  0  0  0  0999 V2000
   -1.1515  -53.8268  -20.0938 N   0  0  0  0  0  0  0  0  0  0  0  0
   -1.0673  -54.0262  -21.4876 C   0  0  0  0  0  0  0  0  0  0  0  0
   -1.6630  -55.0592  -22.1143 N   0  0  0  0  0  0  0  0  0  0  0  0
   -1.5170  -55.1525  -23.4481 C   0  0  0  0  0  0  0  0  0  0  0  0
   -0.8065  -54.2612  -24.1630 N   0  0  0  0  0  0  0  0  0  0  0  0
   -0.1836  -53.1980  -23.5797 C   0  0  0  0  0  0  0  0  0  0  0  0
    0.5679  -52.1875  -24.0446 N   0  0  0  0  0  0  0  0  0  0  0  0
    0.9076  -51.4357  -22.9890 C   0  0  0  0  0  0  0  0  0  0  0  0
    0.3660  -51.9861  -21.8903 N   0  0  0  0  0  0  0  0  0  0  0  0
   -0.3274  -53.0934  -22.2116 C   0  0  0  0  0  0  0  0  0  0  0  0
   -1.8849  -53.2209  -19.6426 H   0  0  0  0  0  0  0  0  0  0  0  0
   -0.4712  -54.2867  -19.4584 H   0  0  0  0  0  0  0  0  0  0  0  0
    0.9173  -51.9806  -25.3911 C   0  0  0  0  0  0  0  0  0  0  0  0
   -0.1141  -52.1341  -26.3079 O   0  0  0  0  0  0  0  0  0  0  0  0
    0.4761  -52.1035  -27.5494 C   0  0  0  0  0  0  0  0  0  0  0  0
    1.9381  -52.4453  -27.3813 C   0  0  0  0  0  0  0  0  0  0  0  0
    2.6898  -51.2795  -27.3433 O   0  0  0  0  0  0  0  0  0  0  0  0
    1.9163  -52.9795  -25.9396 C   0  0  0  0  0  0  0  0  0  0  0  0
    1.3748  -54.2592  -26.0348 O   0  0  0  0  0  0  0  0  0  0  0  0
    2.5474  -50.6961  -28.1117 H   0  0  0  0  0  0  0  0  0  0  0  0
    0.3929  -54.2010  -25.8351 H   0  0  0  0  0  0  0  0  0  0  0  0
   -0.1448  -53.0880  -28.5265 C   0  0  0  0  0  0  0  0  0  0  0  0
    0.4265  -52.8329  -29.7683 O   0  0  0  0  0  0  0  0  0  0  0  0
   -0.2267  -52.8937  -30.5051 H   0  0  0  0  0  0  0  0  0  0  0  0
  1  2  1  0  0  0
  2  3  2  0  0  0
  3  4  1  0  0  0
  4  5  2  0  0  0
  5  6  1  0  0  0
  6  7  1  0  0  0
  7  8  1  0  0  0
  8  9  2  0  0  0
  9 10  1  0  0  0
  7 13  1  0  0  0
 13 14  1  0  0  0
 14 15  1  0  0  0
 15 22  1  0  0  0
 22 23  1  0  0  0
 15 16  1  0  0  0
 16 17  1  0  0  0
 16 18  1  0  0  0
 18 19  1  0  0  0
 10  2  1  0  0  0
 18 13  1  0  0  0
 10  6  2  0  0  0
  1 11  1  0  0  0
  1 12  1  0  0  0
 23 24  1  0  0  0
 17 20  1  0  0  0
 19 21  1  0  0  0
M  END
> <minimizedAffinity>
-7.56006

> <CNNscore>
0.9335292578

> <CNNaffinity>
5.4204330444

> <CNN_VS>
5.0601329803

> <CNNaffinity_variance>
0.2247451842

$$$$
[H]OC([H])([H])[C@@]1([H])O[C@@]([H])(n2c([H])nc3c(N([H])[H])nc([H])nc32)[C@@]([H])(O[H])[C@]1([H])O[H]


 24 26  0  0  0  0  0  0  0  0999 V2000
   -1.3462  -55.6946  -23.9189 N   0  0  0  0  0  0  0  0  0  0  0  0
   -1.1967  -54.7234  -22.9070 C   0  0  0  0  0  0  0  0  0  0  0  0
   -1.8212  -54.8079  -21.7164 N   0  0  0  0  0  0  0  0  0  0  0  0
   -1.6067  -53.8246  -20.8240 C   0  0  0  0  0  0  0  0  0  0  0  0
   -0.8016  -52.7774  -21.0799 N   0  0  0  0  0  0  0  0  0  0  0  0
   -0.1458  -52.6424  -22.2675 C   0  0  0  0  0  0  0  0  0  0  0  0
    0.6936  -51.7233  -22.7699 N   0  0  0  0  0  0  0  0  0  0  0  0
    1.0210  -52.1269  -24.0048 C   0  0  0  0  0  0  0  0  0  0  0  0
    0.3845  -53.2836  -24.2506 N   0  0  0  0  0  0  0  0  0  0  0  0
   -0.3592  -53.6461  -23.1897 C   0  0  0  0  0  0  0  0  0  0  0  0
   -0.6938  -56.5135  -24.0310 H   0  0  0  0  0  0  0  0  0  0  0  0
   -2.1272  -55.6240  -24.5992 H   0  0  0  0  0  0  0  0  0  0  0  0
    1.1310  -50.5644  -22.1039 C   0  0  0  0  0  0  0  0  0  0  0  0
    1.8865  -49.6841  -22.8671 O   0  0  0  0  0  0  0  0  0  0  0  0
    2.3826  -48.7510  -21.9875 C   0  0  0  0  0  0  0  0  0  0  0  0
    2.3516  -49.3513  -20.6014 C   0  0  0  0  0  0  0  0  0  0  0  0
    1.2173  -48.9187  -19.9294 O   0  0  0  0  0  0  0  0  0  0  0  0
    2.0921  -50.8236  -20.9613 C   0  0  0  0  0  0  0  0  0  0  0  0
    3.3176  -51.3088  -21.4112 O   0  0  0  0  0  0  0  0  0  0  0  0
    1.1263  -47.9482  -19.8984 H   0  0  0  0  0  0  0  0  0  0  0  0
    3.3287  -51.2548  -22.4133 H   0  0  0  0  0  0  0  0  0  0  0  0
    3.8090  -48.3342  -22.3057 C   0  0  0  0  0  0  0  0  0  0  0  0
    4.2773  -49.2175  -23.2723 O   0  0  0  0  0  0  0  0  0  0  0  0
    5.2173  -49.4772  -23.1238 H   0  0  0  0  0  0  0  0  0  0  0  0
  1  2  1  0  0  0
  2  3  2  0  0  0
  3  4  1  0  0  0
  4  5  2  0  0  0
  5  6  1  0  0  0
  6  7  1  0  0  0
  7  8  1  0  0  0
  8  9  2  0  0  0
  9 10  1  0  0  0
  7 13  1  0  0  0
 13 14  1  0  0  0
 14 15  1  0  0  0
 15 22  1  0  0  0
 22 23  1  0  0  0
 15 16  1  0  0  0
 16 17  1  0  0  0
 16 18  1  0  0  0
 18 19  1  0  0  0
 10  2  1  0  0  0
 18 13  1  0  0  0
 10  6  2  0  0  0
  1 11  1  0  0  0
  1 12  1  0  0  0
 23 24  1  0  0  0
 17 20  1  0  0  0
 19 21  1  0  0  0
M  END
> <minimizedAffinity>
-6.08694

> <CNNscore>
0.9211453199

> <CNNaffinity>
4.7916936874

> <CNN_VS>
4.4138460159

> <CNNaffinity_variance>
0.1986959130

$$$$
[H]OC([H])([H])[C@@]1([H])O[C@@]([H])(n2c([H])nc3c(N([H])[H])nc([H])nc32)[C@@]([H])(O[H])[C@]1([H])O[H]


 24 26  0  0  0  0  0  0  0  0999 V2000
   -1.7786  -55.5213  -23.6069 N   0  0  0  0  0  0  0  0  0  0  0  0
   -0.9395  -54.3877  -23.6189 C   0  0  0  0  0  0  0  0  0  0  0  0
   -0.6889  -53.6770  -24.7355 N   0  0  0  0  0  0  0  0  0  0  0  0
    0.1272  -52.6129  -24.6322 C   0  0  0  0  0  0  0  0  0  0  0  0
    0.6912  -52.2431  -23.4680 N   0  0  0  0  0  0  0  0  0  0  0  0
    0.4717  -52.9262  -22.3087 C   0  0  0  0  0  0  0  0  0  0  0  0
    0.8964  -52.7776  -21.0440 N   0  0  0  0  0  0  0  0  0  0  0  0
    0.3415  -53.7641  -20.3272 C   0  0  0  0  0  0  0  0  0  0  0  0
   -0.4151  -54.5070  -21.1512 N   0  0  0  0  0  0  0  0  0  0  0  0
   -0.3642  -54.0196  -22.4042 C   0  0  0  0  0  0  0  0  0  0  0  0
   -2.8068  -55.4736  -23.3848 H   0  0  0  0  0  0  0  0  0  0  0  0
   -1.3914  -56.4600  -23.8234 H   0  0  0  0  0  0  0  0  0  0  0  0
    1.7606  -51.7674  -20.5850 C   0  0  0  0  0  0  0  0  0  0  0  0
    2.5643  -52.1114  -19.5062 O   0  0  0  0  0  0  0  0  0  0  0  0
    3.1577  -50.9432  -19.0893 C   0  0  0  0  0  0  0  0  0  0  0  0
    2.3221  -49.7887  -19.5908 C   0  0  0  0  0  0  0  0  0  0  0  0
    2.8754  -49.2832  -20.7586 O   0  0  0  0  0  0  0  0  0  0  0  0
    1.0569  -50.5503  -20.0195 C   0  0  0  0  0  0  0  0  0  0  0  0
    0.3879  -50.8398  -18.8327 O   0  0  0  0  0  0  0  0  0  0  0  0
    3.8133  -49.0311  -20.6708 H   0  0  0  0  0  0  0  0  0  0  0  0
    0.6337  -51.7716  -18.5522 H   0  0  0  0  0  0  0  0  0  0  0  0
    3.2712  -50.8415  -17.5773 C   0  0  0  0  0  0  0  0  0  0  0  0
    4.1606  -49.8060  -17.3120 O   0  0  0  0  0  0  0  0  0  0  0  0
    4.7653  -50.0101  -16.5597 H   0  0  0  0  0  0  0  0  0  0  0  0
  1  2  1  0  0  0
  2  3  2  0  0  0
  3  4  1  0  0  0
  4  5  2  0  0  0
  5  6  1  0  0  0
  6  7  1  0  0  0
  7  8  1  0  0  0
  8  9  2  0  0  0
  9 10  1  0  0  0
  7 13  1  0  0  0
 13 14  1  0  0  0
 14 15  1  0  0  0
 15 22  1  0  0  0
 22 23  1  0  0  0
 15 16  1  0  0  0
 16 17  1  0  0  0
 16 18  1  0  0  0
 18 19  1  0  0  0
 10  2  1  0  0  0
 18 13  1  0  0  0
 10  6  2  0  0  0
  1 11  1  0  0  0
  1 12  1  0  0  0
 23 24  1  0  0  0
 17 20  1  0  0  0
 19 21  1  0  0  0
M  END
> <minimizedAffinity>
-6.34943

> <CNNscore>
0.9210131764

> <CNNaffinity>
4.6664094925

> <CNN_VS>
4.2978248596

> <CNNaffinity_variance>
0.2704600096

$$$$
[H]OC([H])([H])[C@@]1([H])O[C@@]([H])(n2c([H])nc3c(N([H])[H])nc([H])nc32)[C@@]([H])(O[H])[C@]1([H])O[H]


 24 26  0  0  0  0  0  0  0  0999 V2000
   -1.3970  -53.8027  -19.7542 N   0  0  0  0  0  0  0  0  0  0  0  0
   -0.7088  -53.2043  -20.8303 C   0  0  0  0  0  0  0  0  0  0  0  0
    0.0023  -52.0676  -20.7000 N   0  0  0  0  0  0  0  0  0  0  0  0
    0.6194  -51.5846  -21.7933 C   0  0  0  0  0  0  0  0  0  0  0  0
    0.5491  -52.1916  -22.9920 N   0  0  0  0  0  0  0  0  0  0  0  0
   -0.1561  -53.3432  -23.1795 C   0  0  0  0  0  0  0  0  0  0  0  0
   -0.3853  -54.1341  -24.2396 N   0  0  0  0  0  0  0  0  0  0  0  0
   -1.1623  -55.1399  -23.8157 C   0  0  0  0  0  0  0  0  0  0  0  0
   -1.4034  -54.9608  -22.5068 N   0  0  0  0  0  0  0  0  0  0  0  0
   -0.7928  -53.8467  -22.0640 C   0  0  0  0  0  0  0  0  0  0  0  0
   -0.9745  -54.5515  -19.1465 H   0  0  0  0  0  0  0  0  0  0  0  0
   -2.3671  -53.5105  -19.5277 H   0  0  0  0  0  0  0  0  0  0  0  0
    0.1095  -53.9236  -25.5391 C   0  0  0  0  0  0  0  0  0  0  0  0
    1.4498  -53.5696  -25.6197 O   0  0  0  0  0  0  0  0  0  0  0  0
    1.6671  -53.2074  -26.9281 C   0  0  0  0  0  0  0  0  0  0  0  0
    0.3342  -52.8478  -27.5420 C   0  0  0  0  0  0  0  0  0  0  0  0
   -0.1605  -53.9311  -28.2542 O   0  0  0  0  0  0  0  0  0  0  0  0
   -0.5221  -52.7548  -26.2682 C   0  0  0  0  0  0  0  0  0  0  0  0
   -0.1813  -51.5344  -25.6900 O   0  0  0  0  0  0  0  0  0  0  0  0
    0.4584  -54.2748  -28.9249 H   0  0  0  0  0  0  0  0  0  0  0  0
    0.5175  -51.7024  -24.9894 H   0  0  0  0  0  0  0  0  0  0  0  0
    2.6038  -52.0189  -27.0676 C   0  0  0  0  0  0  0  0  0  0  0  0
    3.2498  -52.1605  -28.2908 O   0  0  0  0  0  0  0  0  0  0  0  0
    4.2027  -51.9090  -28.2468 H   0  0  0  0  0  0  0  0  0  0  0  0
  1  2  1  0  0  0
  2  3  2  0  0  0
  3  4  1  0  0  0
  4  5  2  0  0  0
  5  6  1  0  0  0
  6  7  1  0  0  0
  7  8  1  0  0  0
  8  9  2  0  0  0
  9 10  1  0  0  0
  7 13  1  0  0  0
 13 14  1  0  0  0
 14 15  1  0  0  0
 15 22  1  0  0  0
 22 23  1  0  0  0
 15 16  1  0  0  0
 16 17  1  0  0  0
 16 18  1  0  0  0
 18 19  1  0  0  0
 10  2  1  0  0  0
 18 13  1  0  0  0
 10  6  2  0  0  0
  1 11  1  0  0  0
  1 12  1  0  0  0
 23 24  1  0  0  0
 17 20  1  0  0  0
 19 21  1  0  0  0
M  END
> <minimizedAffinity>
-7.38905

> <CNNscore>
0.8387269378

> <CNNaffinity>
5.0450820923

> <CNN_VS>
4.2314462662

> <CNNaffinity_variance>
0.2991347909

$$$$
[H]OC([H])([H])[C@@]1([H])O[C@@]([H])(n2c([H])nc3c(N([H])[H])nc([H])nc32)[C@@]([H])(O[H])[C@]1([H])O[H]


 24 26  0  0  0  0  0  0  0  0999 V2000
   -1.6844  -55.5969  -23.6051 N   0  0  0  0  0  0  0  0  0  0  0  0
   -0.9949  -54.3737  -23.7386 C   0  0  0  0  0  0  0  0  0  0  0  0
   -0.8753  -53.7280  -24.9148 N   0  0  0  0  0  0  0  0  0  0  0  0
   -0.1958  -52.5672  -24.9273 C   0  0  0  0  0  0  0  0  0  0  0  0
    0.3586  -52.0408  -23.8202 N   0  0  0  0  0  0  0  0  0  0  0  0
    0.2680  -52.6521  -22.6050 C   0  0  0  0  0  0  0  0  0  0  0  0
    0.7155  -52.3535  -21.3752 N   0  0  0  0  0  0  0  0  0  0  0  0
    0.3146  -53.3408  -20.5632 C   0  0  0  0  0  0  0  0  0  0  0  0
   -0.3719  -54.2333  -21.2951 N   0  0  0  0  0  0  0  0  0  0  0  0
   -0.4273  -53.8435  -22.5817 C   0  0  0  0  0  0  0  0  0  0  0  0
   -2.7018  -55.6578  -23.3410 H   0  0  0  0  0  0  0  0  0  0  0  0
   -1.1906  -56.4953  -23.7691 H   0  0  0  0  0  0  0  0  0  0  0  0
    1.4622  -51.2123  -21.0314 C   0  0  0  0  0  0  0  0  0  0  0  0
    2.6119  -51.0007  -21.7808 O   0  0  0  0  0  0  0  0  0  0  0  0
    3.2897  -49.9820  -21.1537 C   0  0  0  0  0  0  0  0  0  0  0  0
    2.8090  -49.9109  -19.7231 C   0  0  0  0  0  0  0  0  0  0  0  0
    1.8452  -48.9200  -19.6021 O   0  0  0  0  0  0  0  0  0  0  0  0
    2.0526  -51.2469  -19.6362 C   0  0  0  0  0  0  0  0  0  0  0  0
    3.0437  -52.2178  -19.5138 O   0  0  0  0  0  0  0  0  0  0  0  0
    2.1385  -48.0467  -19.9221 H   0  0  0  0  0  0  0  0  0  0  0  0
    3.2319  -52.5920  -20.4258 H   0  0  0  0  0  0  0  0  0  0  0  0
    4.7959  -50.1839  -21.1516 C   0  0  0  0  0  0  0  0  0  0  0  0
    5.0281  -51.4653  -21.6394 O   0  0  0  0  0  0  0  0  0  0  0  0
    5.7523  -51.9288  -21.1557 H   0  0  0  0  0  0  0  0  0  0  0  0
  1  2  1  0  0  0
  2  3  2  0  0  0
  3  4  1  0  0  0
  4  5  2  0  0  0
  5  6  1  0  0  0
  6  7  1  0  0  0
  7  8  1  0  0  0
  8  9  2  0  0  0
  9 10  1  0  0  0
  7 13  1  0  0  0
 13 14  1  0  0  0
 14 15  1  0  0  0
 15 22  1  0  0  0
 22 23  1  0  0  0
 15 16  1  0  0  0
 16 17  1  0  0  0
 16 18  1  0  0  0
 18 19  1  0  0  0
 10  2  1  0  0  0
 18 13  1  0  0  0
 10  6  2  0  0  0
  1 11  1  0  0  0
  1 12  1  0  0  0
 23 24  1  0  0  0
 17 20  1  0  0  0
 19 21  1  0  0  0
M  END
> <minimizedAffinity>
-6.21082

> <CNNscore>
0.8051356673

> <CNNaffinity>
4.6657009125

> <CNN_VS>
3.7565221786

> <CNNaffinity_variance>
0.2350698709

$$$$
[H]OC([H])([H])[C@@]1([H])O[C@@]([H])(n2c([H])nc3c(N([H])[H])nc([H])nc32)[C@@]([H])(O[H])[C@]1([H])O[H]


 24 26  0  0  0  0  0  0  0  0999 V2000
   -0.8872  -53.6330  -19.4898 N   0  0  0  0  0  0  0  0  0  0  0  0
   -0.3047  -52.7390  -20.4123 C   0  0  0  0  0  0  0  0  0  0  0  0
    0.2819  -51.5851  -20.0393 N   0  0  0  0  0  0  0  0  0  0  0  0
    0.8058  -50.8072  -21.0035 C   0  0  0  0  0  0  0  0  0  0  0  0
    0.7626  -51.1407  -22.3063 N   0  0  0  0  0  0  0  0  0  0  0  0
    0.1815  -52.2958  -22.7384 C   0  0  0  0  0  0  0  0  0  0  0  0
    0.0051  -52.8561  -23.9454 N   0  0  0  0  0  0  0  0  0  0  0  0
   -0.6429  -54.0120  -23.7484 C   0  0  0  0  0  0  0  0  0  0  0  0
   -0.8585  -54.1528  -22.4304 N   0  0  0  0  0  0  0  0  0  0  0  0
   -0.3589  -53.1007  -21.7569 C   0  0  0  0  0  0  0  0  0  0  0  0
   -0.3655  -54.4438  -19.0665 H   0  0  0  0  0  0  0  0  0  0  0  0
   -1.8754  -53.5101  -19.1962 H   0  0  0  0  0  0  0  0  0  0  0  0
    0.4304  -52.3109  -25.1701 C   0  0  0  0  0  0  0  0  0  0  0  0
   -0.4821  -52.3969  -26.2131 O   0  0  0  0  0  0  0  0  0  0  0  0
    0.1990  -52.0126  -27.3439 C   0  0  0  0  0  0  0  0  0  0  0  0
    1.6771  -52.1806  -27.0800 C   0  0  0  0  0  0  0  0  0  0  0  0
    2.2290  -50.9609  -26.7151 O   0  0  0  0  0  0  0  0  0  0  0  0
    1.6177  -53.0183  -25.7919 C   0  0  0  0  0  0  0  0  0  0  0  0
    1.2955  -54.3067  -26.2112 O   0  0  0  0  0  0  0  0  0  0  0  0
    2.0618  -50.2470  -27.3581 H   0  0  0  0  0  0  0  0  0  0  0  0
    0.3034  -54.4284  -26.1200 H   0  0  0  0  0  0  0  0  0  0  0  0
   -0.1732  -52.8318  -28.5686 C   0  0  0  0  0  0  0  0  0  0  0  0
    1.0162  -53.1401  -29.2197 O   0  0  0  0  0  0  0  0  0  0  0  0
    0.9359  -53.0832  -30.2013 H   0  0  0  0  0  0  0  0  0  0  0  0
  1  2  1  0  0  0
  2  3  2  0  0  0
  3  4  1  0  0  0
  4  5  2  0  0  0
  5  6  1  0  0  0
  6  7  1  0  0  0
  7  8  1  0  0  0
  8  9  2  0  0  0
  9 10  1  0  0  0
  7 13  1  0  0  0
 13 14  1  0  0  0
 14 15  1  0  0  0
 15 22  1  0  0  0
 22 23  1  0  0  0
 15 16  1  0  0  0
 16 17  1  0  0  0
 16 18  1  0  0  0
 18 19  1  0  0  0
 10  2  1  0  0  0
 18 13  1  0  0  0
 10  6  2  0  0  0
  1 11  1  0  0  0
  1 12  1  0  0  0
 23 24  1  0  0  0
 17 20  1  0  0  0
 19 21  1  0  0  0
M  END
> <minimizedAffinity>
-6.63560

> <CNNscore>
0.7164049149

> <CNNaffinity>
4.8410406113

> <CNN_VS>
3.4681453705

> <CNNaffinity_variance>
0.1495392621

$$$$
[H]OC([H])([H])[C@@]1([H])O[C@@]([H])(n2c([H])nc3c(N([H])[H])nc([H])nc32)[C@@]([H])(O[H])[C@]1([H])O[H]


 24 26  0  0  0  0  0  0  0  0999 V2000
   -0.2061  -54.0375  -19.6649 N   0  0  0  0  0  0  0  0  0  0  0  0
    0.1271  -53.1553  -20.7138 C   0  0  0  0  0  0  0  0  0  0  0  0
    0.7508  -51.9792  -20.5078 N   0  0  0  0  0  0  0  0  0  0  0  0
    1.0206  -51.2154  -21.5816 C   0  0  0  0  0  0  0  0  0  0  0  0
    0.6922  -51.5838  -22.8332 N   0  0  0  0  0  0  0  0  0  0  0  0
    0.0605  -52.7625  -23.0981 C   0  0  0  0  0  0  0  0  0  0  0  0
   -0.3696  -53.3580  -24.2216 N   0  0  0  0  0  0  0  0  0  0  0  0
   -0.9237  -54.5226  -23.8588 C   0  0  0  0  0  0  0  0  0  0  0  0
   -0.8307  -54.6335  -22.5237 N   0  0  0  0  0  0  0  0  0  0  0  0
   -0.2207  -53.5532  -22.0032 C   0  0  0  0  0  0  0  0  0  0  0  0
    0.4203  -54.8251  -19.3549 H   0  0  0  0  0  0  0  0  0  0  0  0
   -1.1049  -53.9290  -19.1568 H   0  0  0  0  0  0  0  0  0  0  0  0
   -0.2483  -52.8358  -25.5219 C   0  0  0  0  0  0  0  0  0  0  0  0
   -1.4448  -52.5698  -26.1744 O   0  0  0  0  0  0  0  0  0  0  0  0
   -1.1093  -52.2803  -27.4760 C   0  0  0  0  0  0  0  0  0  0  0  0
    0.2545  -52.8698  -27.7501 C   0  0  0  0  0  0  0  0  0  0  0  0
    1.2250  -51.8876  -27.6134 O   0  0  0  0  0  0  0  0  0  0  0  0
    0.3979  -53.7780  -26.5175 C   0  0  0  0  0  0  0  0  0  0  0  0
   -0.4055  -54.8836  -26.7858 O   0  0  0  0  0  0  0  0  0  0  0  0
    1.0629  -51.0974  -28.1614 H   0  0  0  0  0  0  0  0  0  0  0  0
   -1.2973  -54.7379  -26.3489 H   0  0  0  0  0  0  0  0  0  0  0  0
   -2.0959  -52.8466  -28.4836 C   0  0  0  0  0  0  0  0  0  0  0  0
   -3.3588  -52.7351  -27.9125 O   0  0  0  0  0  0  0  0  0  0  0  0
   -3.9258  -53.5224  -28.0913 H   0  0  0  0  0  0  0  0  0  0  0  0
  1  2  1  0  0  0
  2  3  2  0  0  0
  3  4  1  0  0  0
  4  5  2  0  0  0
  5  6  1  0  0  0
  6  7  1  0  0  0
  7  8  1  0  0  0
  8  9  2  0  0  0
  9 10  1  0  0  0
  7 13  1  0  0  0
 13 14  1  0  0  0
 14 15  1  0  0  0
 15 22  1  0  0  0
 22 23  1  0  0  0
 15 16  1  0  0  0
 16 17  1  0  0  0
 16 18  1  0  0  0
 18 19  1  0  0  0
 10  2  1  0  0  0
 18 13  1  0  0  0
 10  6  2  0  0  0
  1 11  1  0  0  0
  1 12  1  0  0  0
 23 24  1  0  0  0
 17 20  1  0  0  0
 19 21  1  0  0  0
M  END
> <minimizedAffinity>
-7.66363

> <CNNscore>
0.6360743642

> <CNNaffinity>
4.8907637596

> <CNN_VS>
3.1108894348

> <CNNaffinity_variance>
0.2653039694

$$$$
[H]OC([H])([H])[C@@]1([H])O[C@@]([H])(n2c([H])nc3c(N([H])[H])nc([H])nc32)[C@@]([H])(O[H])[C@]1([H])O[H]


 24 26  0  0  0  0  0  0  0  0999 V2000
   -0.2462  -54.2768  -26.2009 N   0  0  0  0  0  0  0  0  0  0  0  0
   -0.5043  -54.2548  -24.8144 C   0  0  0  0  0  0  0  0  0  0  0  0
   -1.1831  -55.2321  -24.1829 N   0  0  0  0  0  0  0  0  0  0  0  0
   -1.3720  -55.1090  -22.8568 C   0  0  0  0  0  0  0  0  0  0  0  0
   -0.9117  -54.0579  -22.1543 N   0  0  0  0  0  0  0  0  0  0  0  0
   -0.2193  -53.0417  -22.7430 C   0  0  0  0  0  0  0  0  0  0  0  0
    0.3369  -51.9071  -22.2898 N   0  0  0  0  0  0  0  0  0  0  0  0
    0.8908  -51.2951  -23.3451 C   0  0  0  0  0  0  0  0  0  0  0  0
    0.6723  -52.0530  -24.4319 N   0  0  0  0  0  0  0  0  0  0  0  0
   -0.0203  -53.1586  -24.1031 C   0  0  0  0  0  0  0  0  0  0  0  0
    0.6360  -54.6748  -26.6155 H   0  0  0  0  0  0  0  0  0  0  0  0
   -0.9412  -53.8891  -26.8677 H   0  0  0  0  0  0  0  0  0  0  0  0
    0.3260  -51.4679  -20.9538 C   0  0  0  0  0  0  0  0  0  0  0  0
    0.7658  -50.1670  -20.7475 O   0  0  0  0  0  0  0  0  0  0  0  0
    0.8785  -50.0178  -19.3853 C   0  0  0  0  0  0  0  0  0  0  0  0
    0.9989  -51.3932  -18.7719 C   0  0  0  0  0  0  0  0  0  0  0  0
   -0.2407  -51.8083  -18.3067 O   0  0  0  0  0  0  0  0  0  0  0  0
    1.2716  -52.2202  -20.0393 C   0  0  0  0  0  0  0  0  0  0  0  0
    2.6060  -51.9741  -20.3532 O   0  0  0  0  0  0  0  0  0  0  0  0
   -0.6584  -51.1793  -17.6894 H   0  0  0  0  0  0  0  0  0  0  0  0
    2.6379  -51.2448  -21.0419 H   0  0  0  0  0  0  0  0  0  0  0  0
    2.0887  -49.1946  -18.9762 C   0  0  0  0  0  0  0  0  0  0  0  0
    2.8946  -49.0812  -20.1037 O   0  0  0  0  0  0  0  0  0  0  0  0
    3.8550  -49.1585  -19.8917 H   0  0  0  0  0  0  0  0  0  0  0  0
  1  2  1  0  0  0
  2  3  2  0  0  0
  3  4  1  0  0  0
  4  5  2  0  0  0
  5  6  1  0  0  0
  6  7  1  0  0  0
  7  8  1  0  0  0
  8  9  2  0  0  0
  9 10  1  0  0  0
  7 13  1  0  0  0
 13 14  1  0  0  0
 14 15  1  0  0  0
 15 22  1  0  0  0
 22 23  1  0  0  0
 15 16  1  0  0  0
 16 17  1  0  0  0
 16 18  1  0  0  0
 18 19  1  0  0  0
 10  2  1  0  0  0
 18 13  1  0  0  0
 10  6  2  0  0  0
  1 11  1  0  0  0
  1 12  1  0  0  0
 23 24  1  0  0  0
 17 20  1  0  0  0
 19 21  1  0  0  0
M  END
> <minimizedAffinity>
-6.04844

> <CNNscore>
0.5838663578

> <CNNaffinity>
4.4625062943

> <CNN_VS>
2.6055073738

> <CNNaffinity_variance>
0.2265040427

$$$$
[H]OC(=O)[C@@]([H])(N([H])C(=O)[C@@]([H])(N([H])C(=O)[C@@]([H])(N([H])C(=O)[C@@]([H])(N([H])C(=O)C([H])([H])[C@]([H])(O[H])[C@]([H])(N([H])C(=O)[C@@]([H])(N([H])C(=O)C([H])([H])[H])C([H])([H])C([H])(C([H])([H])[H])C([H])([H])[H])C([H])([H])C([H])(C([H])([H])[H])C([H])([H])[H])C([H])(C([H])([H])[H])C([H])([H])[H])[C@]([H])(C(=O)N([H])[H])C([H])([H])C([H])(C([H])([H])[H])C([H])([H])[H])[C@]([H])(O[H])C(=O)O[H])C([H])([H])[H]


 68 67  0  0  0  0  0  0  0  0999 V2000
    2.5472  -48.5124  -19.9803 C   0  0  0  0  0  0  0  0  0  0  0  0
    1.6373  -47.9160  -20.6750 O   0  0  0  0  0  0  0  0  0  0  0  0
    3.4847  -47.6725  -19.3458 N   0  0  0  0  0  0  0  0  0  0  0  0
    4.2883  -48.2091  -18.8860 H   0  0  0  0  0  0  0  0  0  0  0  0
    3.5663  -46.2807  -19.2680 C   0  0  0  0  0  0  0  0  0  0  0  0
    4.2954  -45.5448  -20.3588 C   0  0  0  0  0  0  0  0  0  0  0  0
    5.4460  -46.1389  -20.8673 N   0  0  0  0  0  0  0  0  0  0  0  0
    3.8435  -44.4593  -20.7583 O   0  0  0  0  0  0  0  0  0  0  0  0
    5.7431  -47.0812  -20.3199 H   0  0  0  0  0  0  0  0  0  0  0  0
    6.4149  -45.8848  -21.8413 C   0  0  0  0  0  0  0  0  0  0  0  0
    5.9865  -46.2217  -23.2656 C   0  0  0  0  0  0  0  0  0  0  0  0
    6.6072  -47.1274  -23.8163 O   0  0  0  0  0  0  0  0  0  0  0  0
    4.9328  -45.5152  -23.8883 N   0  0  0  0  0  0  0  0  0  0  0  0
    4.9662  -46.4331  -24.9040 H   0  0  0  0  0  0  0  0  0  0  0  0
    3.9459  -44.8790  -24.5085 C   0  0  0  0  0  0  0  0  0  0  0  0
    4.0747  -44.7909  -26.0829 C   0  0  0  0  0  0  0  0  0  0  0  0
    2.5207  -45.2550  -24.2564 C   0  0  0  0  0  0  0  0  0  0  0  0
    1.5790  -44.8644  -25.1862 O   0  0  0  0  0  0  0  0  0  0  0  0
    2.1343  -45.9077  -23.2477 O   0  0  0  0  0  0  0  0  0  0  0  0
    1.6972  -44.9884  -26.1910 H   0  0  0  0  0  0  0  0  0  0  0  0
    7.7505  -46.5157  -21.6231 C   0  0  0  0  0  0  0  0  0  0  0  0
    7.6676  -47.8937  -21.3702 O   0  0  0  0  0  0  0  0  0  0  0  0
    7.4773  -48.0171  -20.4030 H   0  0  0  0  0  0  0  0  0  0  0  0
    8.5726  -45.7893  -20.6668 C   0  0  0  0  0  0  0  0  0  0  0  0
    8.0282  -44.6481  -20.0375 O   0  0  0  0  0  0  0  0  0  0  0  0
    9.7402  -46.1094  -20.3505 O   0  0  0  0  0  0  0  0  0  0  0  0
    7.5555  -43.9647  -20.6667 H   0  0  0  0  0  0  0  0  0  0  0  0
    4.0093  -45.6986  -17.9388 C   0  0  0  0  0  0  0  0  0  0  0  0
    4.6266  -46.7394  -17.0930 C   0  0  0  0  0  0  0  0  0  0  0  0
    3.8764  -47.4645  -16.3770 O   0  0  0  0  0  0  0  0  0  0  0  0
    6.0094  -46.9852  -17.0150 N   0  0  0  0  0  0  0  0  0  0  0  0
    6.6783  -46.9542  -17.7957 H   0  0  0  0  0  0  0  0  0  0  0  0
    6.4213  -47.2284  -16.0669 H   0  0  0  0  0  0  0  0  0  0  0  0
    2.8373  -44.9759  -17.2754 C   0  0  0  0  0  0  0  0  0  0  0  0
    2.9762  -43.5241  -17.0838 C   0  0  0  0  0  0  0  0  0  0  0  0
    1.7086  -42.8753  -17.6737 C   0  0  0  0  0  0  0  0  0  0  0  0
    4.1297  -42.8070  -17.6300 C   0  0  0  0  0  0  0  0  0  0  0  0
    2.4375  -49.9678  -19.9621 C   0  0  0  0  0  0  0  0  0  0  0  0
    4.6884  -50.5060  -21.2865 C   0  0  0  0  0  0  0  0  0  0  0  0
    5.2083  -49.4153  -21.2350 O   0  0  0  0  0  0  0  0  0  0  0  0
    3.4016  -50.6787  -20.6712 N   0  0  0  0  0  0  0  0  0  0  0  0
    3.0533  -51.7605  -20.9227 H   0  0  0  0  0  0  0  0  0  0  0  0
    5.2376  -51.7294  -21.9416 C   0  0  0  0  0  0  0  0  0  0  0  0
    4.8541  -52.1404  -23.2521 C   0  0  0  0  0  0  0  0  0  0  0  0
    6.0391  -52.3799  -24.0614 O   0  0  0  0  0  0  0  0  0  0  0  0
    6.8230  -52.3260  -23.4999 H   0  0  0  0  0  0  0  0  0  0  0  0
    3.8038  -51.7043  -24.1401 C   0  0  0  0  0  0  0  0  0  0  0  0
    1.5234  -52.5914  -23.7273 C   0  0  0  0  0  0  0  0  0  0  0  0
    1.4045  -51.6510  -22.8300 O   0  0  0  0  0  0  0  0  0  0  0  0
    2.7095  -52.6517  -24.4035 N   0  0  0  0  0  0  0  0  0  0  0  0
    2.8939  -53.3532  -25.1552 H   0  0  0  0  0  0  0  0  0  0  0  0
    0.2598  -53.4030  -23.7888 C   0  0  0  0  0  0  0  0  0  0  0  0
   -0.4542  -53.2679  -20.1086 C   0  0  0  0  0  0  0  0  0  0  0  0
   -1.0298  -53.8584  -21.3926 C   0  0  0  0  0  0  0  0  0  0  0  0
   -2.0387  -54.5118  -21.2492 O   0  0  0  0  0  0  0  0  0  0  0  0
   -0.2929  -53.5548  -22.5326 N   0  0  0  0  0  0  0  0  0  0  0  0
   -1.1979  -54.4274  -23.1465 H   0  0  0  0  0  0  0  0  0  0  0  0
   -0.5988  -52.6205  -24.8020 C   0  0  0  0  0  0  0  0  0  0  0  0
   -0.5633  -53.1387  -26.1924 C   0  0  0  0  0  0  0  0  0  0  0  0
    0.1646  -52.2976  -27.1965 C   0  0  0  0  0  0  0  0  0  0  0  0
    0.0788  -54.5200  -26.1865 C   0  0  0  0  0  0  0  0  0  0  0  0
    4.1892  -50.9312  -25.3208 C   0  0  0  0  0  0  0  0  0  0  0  0
    4.4212  -49.4377  -24.9803 C   0  0  0  0  0  0  0  0  0  0  0  0
    4.4622  -48.5628  -26.1861 C   0  0  0  0  0  0  0  0  0  0  0  0
    3.1550  -49.0354  -24.1955 C   0  0  0  0  0  0  0  0  0  0  0  0
    2.0652  -50.6698  -18.7194 C   0  0  0  0  0  0  0  0  0  0  0  0
    3.0986  -50.7747  -17.6479 C   0  0  0  0  0  0  0  0  0  0  0  0
    0.9034  -49.8787  -18.0711 C   0  0  0  0  0  0  0  0  0  0  0  0
 53 54  1  0  0  0
 54 55  2  0  0  0
 54 56  1  0  0  0
 56 52  1  0  0  0
 52 58  1  0  0  0
 58 59  1  0  0  0
 59 60  1  0  0  0
 59 61  1  0  0  0
 52 48  1  0  0  0
 48 49  2  0  0  0
 48 50  1  0  0  0
 50 47  1  0  0  0
 47 44  1  0  0  0
 44 45  1  0  0  0
 44 43  1  0  0  0
 43 39  1  0  0  0
 39 40  2  0  0  0
 39 41  1  0  0  0
 41 38  1  0  0  0
 38 66  1  0  0  0
 66 67  1  0  0  0
 66 68  1  0  0  0
 38  1  1  0  0  0
  1  2  2  0  0  0
  1  3  1  0  0  0
  3  5  1  0  0  0
  5 28  1  0  0  0
 28 34  1  0  0  0
 34 35  1  0  0  0
 35 36  1  0  0  0
 35 37  1  0  0  0
 28 29  1  0  0  0
 29 30  2  0  0  0
 29 31  1  0  0  0
  5  6  1  0  0  0
  6  7  1  0  0  0
  7 10  1  0  0  0
 10 11  1  0  0  0
 11 12  2  0  0  0
 11 13  1  0  0  0
 13 15  1  0  0  0
 15 16  1  0  0  0
 15 17  1  0  0  0
 17 18  1  0  0  0
 17 19  2  0  0  0
 10 21  1  0  0  0
 21 22  1  0  0  0
 21 24  1  0  0  0
 24 25  1  0  0  0
 24 26  2  0  0  0
  6  8  2  0  0  0
 47 62  1  0  0  0
 62 63  1  0  0  0
 63 64  1  0  0  0
 63 65  1  0  0  0
 56 57  1  0  0  0
 50 51  1  0  0  0
 45 46  1  0  0  0
 41 42  1  0  0  0
  3  4  1  0  0  0
 31 32  1  0  0  0
 31 33  1  0  0  0
  7  9  1  0  0  0
 13 14  1  0  0  0
 18 20  1  0  0  0
 22 23  1  0  0  0
 25 27  1  0  0  0
M  END
> <minimizedAffinity>
-5.66688

> <CNNscore>
0.1852492839

> <CNNaffinity>
6.7948579788

> <CNN_VS>
1.2587425709

> <CNNaffinity_variance>
0.5252429247

$$$$
[H]OC(=O)[C@@]([H])(N([H])C(=O)[C@@]([H])(N([H])C(=O)[C@@]([H])(N([H])C(=O)[C@@]([H])(N([H])C(=O)C([H])([H])[C@]([H])(O[H])[C@]([H])(N([H])C(=O)[C@@]([H])(N([H])C(=O)C([H])([H])[H])C([H])([H])C([H])(C([H])([H])[H])C([H])([H])[H])C([H])([H])C([H])(C([H])([H])[H])C([H])([H])[H])C([H])(C([H])([H])[H])C([H])([H])[H])[C@]([H])(C(=O)N([H])[H])C([H])([H])C([H])(C([H])([H])[H])C([H])([H])[H])[C@]([H])(O[H])C(=O)O[H])C([H])([H])[H]


 68 67  0  0  0  0  0  0  0  0999 V2000
    0.1479  -51.7671  -21.4809 C   0  0  0  0  0  0  0  0  0  0  0  0
    0.7673  -50.7894  -22.0524 O   0  0  0  0  0  0  0  0  0  0  0  0
    0.2421  -51.8161  -20.0754 N   0  0  0  0  0  0  0  0  0  0  0  0
   -0.1790  -52.7056  -19.6552 H   0  0  0  0  0  0  0  0  0  0  0  0
    0.8327  -50.9392  -19.1631 C   0  0  0  0  0  0  0  0  0  0  0  0
    2.2202  -50.4344  -19.4515 C   0  0  0  0  0  0  0  0  0  0  0  0
    2.3617  -49.0740  -19.7055 N   0  0  0  0  0  0  0  0  0  0  0  0
    3.1666  -51.2384  -19.4439 O   0  0  0  0  0  0  0  0  0  0  0  0
    1.3772  -48.5219  -19.7512 H   0  0  0  0  0  0  0  0  0  0  0  0
    3.3794  -48.1609  -19.9930 C   0  0  0  0  0  0  0  0  0  0  0  0
    3.9615  -48.2811  -21.3974 C   0  0  0  0  0  0  0  0  0  0  0  0
    3.1789  -48.0893  -22.3246 O   0  0  0  0  0  0  0  0  0  0  0  0
    5.3258  -48.5958  -21.5885 N   0  0  0  0  0  0  0  0  0  0  0  0
    5.1679  -48.3101  -22.9184 H   0  0  0  0  0  0  0  0  0  0  0  0
    6.6023  -48.8857  -21.8122 C   0  0  0  0  0  0  0  0  0  0  0  0
    7.1096  -50.2514  -21.1953 C   0  0  0  0  0  0  0  0  0  0  0  0
    7.1576  -48.8570  -23.2002 C   0  0  0  0  0  0  0  0  0  0  0  0
    8.4769  -49.2227  -23.3722 O   0  0  0  0  0  0  0  0  0  0  0  0
    6.4898  -48.5210  -24.2172 O   0  0  0  0  0  0  0  0  0  0  0  0
    8.8869  -50.0575  -22.9552 H   0  0  0  0  0  0  0  0  0  0  0  0
    4.5294  -48.1342  -19.0412 C   0  0  0  0  0  0  0  0  0  0  0  0
    4.9514  -49.4172  -18.6599 O   0  0  0  0  0  0  0  0  0  0  0  0
    4.3709  -49.7217  -17.9134 H   0  0  0  0  0  0  0  0  0  0  0  0
    4.3209  -47.2257  -17.9234 C   0  0  0  0  0  0  0  0  0  0  0  0
    4.7684  -47.6170  -16.6423 O   0  0  0  0  0  0  0  0  0  0  0  0
    3.7734  -46.1044  -18.0156 O   0  0  0  0  0  0  0  0  0  0  0  0
    4.5113  -48.5831  -16.3470 H   0  0  0  0  0  0  0  0  0  0  0  0
    0.7793  -51.3411  -17.7011 C   0  0  0  0  0  0  0  0  0  0  0  0
   -0.5560  -51.8658  -17.3525 C   0  0  0  0  0  0  0  0  0  0  0  0
   -1.3174  -51.1584  -16.6307 O   0  0  0  0  0  0  0  0  0  0  0  0
   -1.0514  -53.1171  -17.7618 N   0  0  0  0  0  0  0  0  0  0  0  0
   -0.9086  -53.5577  -18.6801 H   0  0  0  0  0  0  0  0  0  0  0  0
   -1.6317  -53.6756  -17.0698 H   0  0  0  0  0  0  0  0  0  0  0  0
    1.2330  -50.1721  -16.8273 C   0  0  0  0  0  0  0  0  0  0  0  0
    2.1045  -50.4954  -15.6873 C   0  0  0  0  0  0  0  0  0  0  0  0
    2.2074  -49.2178  -14.8311 C   0  0  0  0  0  0  0  0  0  0  0  0
    3.4661  -50.9869  -15.9056 C   0  0  0  0  0  0  0  0  0  0  0  0
   -0.5608  -52.6534  -22.3989 C   0  0  0  0  0  0  0  0  0  0  0  0
   -0.3595  -52.4357  -25.0489 C   0  0  0  0  0  0  0  0  0  0  0  0
   -1.4019  -51.8661  -25.2757 O   0  0  0  0  0  0  0  0  0  0  0  0
   -0.0442  -52.7660  -23.6866 N   0  0  0  0  0  0  0  0  0  0  0  0
    0.9408  -53.3857  -23.7122 H   0  0  0  0  0  0  0  0  0  0  0  0
    0.6659  -52.8577  -26.0480 C   0  0  0  0  0  0  0  0  0  0  0  0
    1.6245  -51.9559  -26.5969 C   0  0  0  0  0  0  0  0  0  0  0  0
    1.8466  -52.2654  -28.0010 O   0  0  0  0  0  0  0  0  0  0  0  0
    1.2086  -52.9331  -28.2835 H   0  0  0  0  0  0  0  0  0  0  0  0
    2.8515  -51.4044  -26.0753 C   0  0  0  0  0  0  0  0  0  0  0  0
    3.6039  -49.1141  -26.6633 C   0  0  0  0  0  0  0  0  0  0  0  0
    2.9483  -48.7120  -25.6086 O   0  0  0  0  0  0  0  0  0  0  0  0
    3.5787  -50.4540  -26.9311 N   0  0  0  0  0  0  0  0  0  0  0  0
    4.0899  -50.8764  -27.7381 H   0  0  0  0  0  0  0  0  0  0  0  0
    4.2516  -47.9396  -27.3418 C   0  0  0  0  0  0  0  0  0  0  0  0
    6.8461  -48.3679  -30.0171 C   0  0  0  0  0  0  0  0  0  0  0  0
    5.4700  -48.8977  -29.6243 C   0  0  0  0  0  0  0  0  0  0  0  0
    5.0021  -49.7198  -30.3798 O   0  0  0  0  0  0  0  0  0  0  0  0
    4.9647  -48.3415  -28.4537 N   0  0  0  0  0  0  0  0  0  0  0  0
    3.8233  -49.0743  -28.7963 H   0  0  0  0  0  0  0  0  0  0  0  0
    3.0572  -47.0059  -27.6207 C   0  0  0  0  0  0  0  0  0  0  0  0
    3.3587  -45.5548  -27.5416 C   0  0  0  0  0  0  0  0  0  0  0  0
    4.5127  -45.1625  -26.6700 C   0  0  0  0  0  0  0  0  0  0  0  0
    3.6347  -45.0324  -28.9456 C   0  0  0  0  0  0  0  0  0  0  0  0
    3.7376  -52.3004  -25.3322 C   0  0  0  0  0  0  0  0  0  0  0  0
    4.4983  -51.5547  -24.2072 C   0  0  0  0  0  0  0  0  0  0  0  0
    3.9163  -51.7867  -22.8549 C   0  0  0  0  0  0  0  0  0  0  0  0
    5.8916  -52.2178  -24.1992 C   0  0  0  0  0  0  0  0  0  0  0  0
   -1.0927  -53.9445  -21.9238 C   0  0  0  0  0  0  0  0  0  0  0  0
   -1.3793  -54.9930  -22.9464 C   0  0  0  0  0  0  0  0  0  0  0  0
   -0.0218  -54.5752  -21.0014 C   0  0  0  0  0  0  0  0  0  0  0  0
 53 54  1  0  0  0
 54 55  2  0  0  0
 54 56  1  0  0  0
 56 52  1  0  0  0
 52 58  1  0  0  0
 58 59  1  0  0  0
 59 60  1  0  0  0
 59 61  1  0  0  0
 52 48  1  0  0  0
 48 49  2  0  0  0
 48 50  1  0  0  0
 50 47  1  0  0  0
 47 44  1  0  0  0
 44 45  1  0  0  0
 44 43  1  0  0  0
 43 39  1  0  0  0
 39 40  2  0  0  0
 39 41  1  0  0  0
 41 38  1  0  0  0
 38 66  1  0  0  0
 66 67  1  0  0  0
 66 68  1  0  0  0
 38  1  1  0  0  0
  1  2  2  0  0  0
  1  3  1  0  0  0
  3  5  1  0  0  0
  5 28  1  0  0  0
 28 34  1  0  0  0
 34 35  1  0  0  0
 35 36  1  0  0  0
 35 37  1  0  0  0
 28 29  1  0  0  0
 29 30  2  0  0  0
 29 31  1  0  0  0
  5  6  1  0  0  0
  6  7  1  0  0  0
  7 10  1  0  0  0
 10 11  1  0  0  0
 11 12  2  0  0  0
 11 13  1  0  0  0
 13 15  1  0  0  0
 15 16  1  0  0  0
 15 17  1  0  0  0
 17 18  1  0  0  0
 17 19  2  0  0  0
 10 21  1  0  0  0
 21 22  1  0  0  0
 21 24  1  0  0  0
 24 25  1  0  0  0
 24 26  2  0  0  0
  6  8  2  0  0  0
 47 62  1  0  0  0
 62 63  1  0  0  0
 63 64  1  0  0  0
 63 65  1  0  0  0
 56 57  1  0  0  0
 50 51  1  0  0  0
 45 46  1  0  0  0
 41 42  1  0  0  0
  3  4  1  0  0  0
 31 32  1  0  0  0
 31 33  1  0  0  0
  7  9  1  0  0  0
 13 14  1  0  0  0
 18 20  1  0  0  0
 22 23  1  0  0  0
 25 27  1  0  0  0
M  END
> <minimizedAffinity>
-6.68232

> <CNNscore>
0.1119621545

> <CNNaffinity>
7.0161538124

> <CNN_VS>
0.7855436802

> <CNNaffinity_variance>
0.5854728222

$$$$
[H]OC(=O)[C@@]([H])(N([H])C(=O)[C@@]([H])(N([H])C(=O)[C@@]([H])(N([H])C(=O)[C@@]([H])(N([H])C(=O)C([H])([H])[C@]([H])(O[H])[C@]([H])(N([H])C(=O)[C@@]([H])(N([H])C(=O)C([H])([H])[H])C([H])([H])C([H])(C([H])([H])[H])C([H])([H])[H])C([H])([H])C([H])(C([H])([H])[H])C([H])([H])[H])C([H])(C([H])([H])[H])C([H])([H])[H])[C@]([H])(C(=O)N([H])[H])C([H])([H])C([H])(C([H])([H])[H])C([H])([H])[H])[C@]([H])(O[H])C(=O)O[H])C([H])([H])[H]


 68 67  0  0  0  0  0  0  0  0999 V2000
    1.4372  -50.0232  -21.3280 C   0  0  0  0  0  0  0  0  0  0  0  0
    1.1407  -48.8690  -21.8241 O   0  0  0  0  0  0  0  0  0  0  0  0
    2.0002  -50.0101  -20.0359 N   0  0  0  0  0  0  0  0  0  0  0  0
    2.3430  -50.9718  -19.7154 H   0  0  0  0  0  0  0  0  0  0  0  0
    2.2312  -48.9599  -19.1451 C   0  0  0  0  0  0  0  0  0  0  0  0
    3.4177  -48.0666  -19.3845 C   0  0  0  0  0  0  0  0  0  0  0  0
    3.4961  -47.4312  -20.6196 N   0  0  0  0  0  0  0  0  0  0  0  0
    4.2600  -47.9302  -18.4823 O   0  0  0  0  0  0  0  0  0  0  0  0
    2.6822  -47.7450  -21.3374 H   0  0  0  0  0  0  0  0  0  0  0  0
    4.3380  -46.5395  -21.2889 C   0  0  0  0  0  0  0  0  0  0  0  0
    3.9973  -45.0676  -21.0811 C   0  0  0  0  0  0  0  0  0  0  0  0
    3.7297  -44.4269  -22.0944 O   0  0  0  0  0  0  0  0  0  0  0  0
    3.9976  -44.5029  -19.7857 N   0  0  0  0  0  0  0  0  0  0  0  0
    3.4258  -43.3771  -20.3159 H   0  0  0  0  0  0  0  0  0  0  0  0
    3.9825  -43.9338  -18.5859 C   0  0  0  0  0  0  0  0  0  0  0  0
    3.0626  -44.6383  -17.5087 C   0  0  0  0  0  0  0  0  0  0  0  0
    5.2602  -43.6349  -17.8689 C   0  0  0  0  0  0  0  0  0  0  0  0
    5.1837  -42.9232  -16.6893 O   0  0  0  0  0  0  0  0  0  0  0  0
    6.3974  -43.9973  -18.2793 O   0  0  0  0  0  0  0  0  0  0  0  0
    4.5230  -43.1407  -15.9443 H   0  0  0  0  0  0  0  0  0  0  0  0
    4.4892  -46.7524  -22.7590 C   0  0  0  0  0  0  0  0  0  0  0  0
    3.5890  -47.7013  -23.2677 O   0  0  0  0  0  0  0  0  0  0  0  0
    3.9785  -48.6033  -23.1206 H   0  0  0  0  0  0  0  0  0  0  0  0
    5.8699  -46.9745  -23.1620 C   0  0  0  0  0  0  0  0  0  0  0  0
    6.5605  -45.9281  -23.8123 O   0  0  0  0  0  0  0  0  0  0  0  0
    6.5024  -48.0362  -22.9657 O   0  0  0  0  0  0  0  0  0  0  0  0
    6.0496  -45.4634  -24.5931 H   0  0  0  0  0  0  0  0  0  0  0  0
    2.1981  -49.3017  -17.6673 C   0  0  0  0  0  0  0  0  0  0  0  0
    3.1951  -50.3433  -17.3500 C   0  0  0  0  0  0  0  0  0  0  0  0
    3.2853  -51.3501  -18.1112 O   0  0  0  0  0  0  0  0  0  0  0  0
    4.0615  -50.3051  -16.2426 N   0  0  0  0  0  0  0  0  0  0  0  0
    4.5320  -49.4716  -15.8660 H   0  0  0  0  0  0  0  0  0  0  0  0
    4.2619  -51.2149  -15.7330 H   0  0  0  0  0  0  0  0  0  0  0  0
    0.7719  -49.6624  -17.2526 C   0  0  0  0  0  0  0  0  0  0  0  0
    0.5759  -50.9800  -16.6286 C   0  0  0  0  0  0  0  0  0  0  0  0
   -0.4092  -51.7541  -17.5264 C   0  0  0  0  0  0  0  0  0  0  0  0
    0.0908  -51.0880  -15.2516 C   0  0  0  0  0  0  0  0  0  0  0  0
    1.1220  -51.1538  -22.1958 C   0  0  0  0  0  0  0  0  0  0  0  0
    3.5010  -51.3239  -23.3882 C   0  0  0  0  0  0  0  0  0  0  0  0
    4.0939  -50.4792  -22.7577 O   0  0  0  0  0  0  0  0  0  0  0  0
    2.1239  -51.5759  -23.0652 N   0  0  0  0  0  0  0  0  0  0  0  0
    1.7319  -52.3433  -23.8478 H   0  0  0  0  0  0  0  0  0  0  0  0
    4.0441  -52.1550  -24.5027 C   0  0  0  0  0  0  0  0  0  0  0  0
    3.3328  -52.3729  -25.7193 C   0  0  0  0  0  0  0  0  0  0  0  0
    4.0178  -53.3770  -26.5189 O   0  0  0  0  0  0  0  0  0  0  0  0
    4.7343  -53.7624  -25.9985 H   0  0  0  0  0  0  0  0  0  0  0  0
    2.6653  -51.4750  -26.6302 C   0  0  0  0  0  0  0  0  0  0  0  0
    3.6373  -49.1977  -26.7929 C   0  0  0  0  0  0  0  0  0  0  0  0
    3.0040  -48.9326  -25.6828 O   0  0  0  0  0  0  0  0  0  0  0  0
    3.4922  -50.4587  -27.2994 N   0  0  0  0  0  0  0  0  0  0  0  0
    3.9756  -50.7748  -28.1697 H   0  0  0  0  0  0  0  0  0  0  0  0
    4.4029  -47.9866  -27.2472 C   0  0  0  0  0  0  0  0  0  0  0  0
    2.3113  -45.3723  -25.5553 C   0  0  0  0  0  0  0  0  0  0  0  0
    3.1551  -45.5646  -26.8121 C   0  0  0  0  0  0  0  0  0  0  0  0
    3.2027  -44.6058  -27.5495 O   0  0  0  0  0  0  0  0  0  0  0  0
    3.7348  -46.8249  -26.9147 N   0  0  0  0  0  0  0  0  0  0  0  0
    4.1309  -46.3564  -28.1720 H   0  0  0  0  0  0  0  0  0  0  0  0
    5.7760  -48.1791  -26.5737 C   0  0  0  0  0  0  0  0  0  0  0  0
    6.9449  -47.7889  -27.4010 C   0  0  0  0  0  0  0  0  0  0  0  0
    7.3425  -46.3451  -27.3502 C   0  0  0  0  0  0  0  0  0  0  0  0
    8.1483  -48.6203  -26.9755 C   0  0  0  0  0  0  0  0  0  0  0  0
    1.3437  -50.9775  -26.2479 C   0  0  0  0  0  0  0  0  0  0  0  0
    0.2843  -52.1079  -26.2368 C   0  0  0  0  0  0  0  0  0  0  0  0
   -1.0860  -51.6216  -25.9096 C   0  0  0  0  0  0  0  0  0  0  0  0
    0.2362  -52.5853  -27.7034 C   0  0  0  0  0  0  0  0  0  0  0  0
    0.3518  -52.2988  -21.6749 C   0  0  0  0  0  0  0  0  0  0  0  0
   -1.0687  -52.0576  -21.2863 C   0  0  0  0  0  0  0  0  0  0  0  0
    0.2784  -53.3582  -22.8009 C   0  0  0  0  0  0  0  0  0  0  0  0
 53 54  1  0  0  0
 54 55  2  0  0  0
 54 56  1  0  0  0
 56 52  1  0  0  0
 52 58  1  0  0  0
 58 59  1  0  0  0
 59 60  1  0  0  0
 59 61  1  0  0  0
 52 48  1  0  0  0
 48 49  2  0  0  0
 48 50  1  0  0  0
 50 47  1  0  0  0
 47 44  1  0  0  0
 44 45  1  0  0  0
 44 43  1  0  0  0
 43 39  1  0  0  0
 39 40  2  0  0  0
 39 41  1  0  0  0
 41 38  1  0  0  0
 38 66  1  0  0  0
 66 67  1  0  0  0
 66 68  1  0  0  0
 38  1  1  0  0  0
  1  2  2  0  0  0
  1  3  1  0  0  0
  3  5  1  0  0  0
  5 28  1  0  0  0
 28 34  1  0  0  0
 34 35  1  0  0  0
 35 36  1  0  0  0
 35 37  1  0  0  0
 28 29  1  0  0  0
 29 30  2  0  0  0
 29 31  1  0  0  0
  5  6  1  0  0  0
  6  7  1  0  0  0
  7 10  1  0  0  0
 10 11  1  0  0  0
 11 12  2  0  0  0
 11 13  1  0  0  0
 13 15  1  0  0  0
 15 16  1  0  0  0
 15 17  1  0  0  0
 17 18  1  0  0  0
 17 19  2  0  0  0
 10 21  1  0  0  0
 21 22  1  0  0  0
 21 24  1  0  0  0
 24 25  1  0  0  0
 24 26  2  0  0  0
  6  8  2  0  0  0
 47 62  1  0  0  0
 62 63  1  0  0  0
 63 64  1  0  0  0
 63 65  1  0  0  0
 56 57  1  0  0  0
 50 51  1  0  0  0
 45 46  1  0  0  0
 41 42  1  0  0  0
  3  4  1  0  0  0
 31 32  1  0  0  0
 31 33  1  0  0  0
  7  9  1  0  0  0
 13 14  1  0  0  0
 18 20  1  0  0  0
 22 23  1  0  0  0
 25 27  1  0  0  0
M  END
> <minimizedAffinity>
-5.96371

> <CNNscore>
0.0966884941

> <CNNaffinity>
6.5370378494

> <CNN_VS>
0.6320563555

> <CNNaffinity_variance>
0.6580111980

$$$$
[H]OC(=O)[C@@]([H])(N([H])C(=O)[C@@]([H])(N([H])C(=O)[C@@]([H])(N([H])C(=O)[C@@]([H])(N([H])C(=O)C([H])([H])[C@]([H])(O[H])[C@]([H])(N([H])C(=O)[C@@]([H])(N([H])C(=O)C([H])([H])[H])C([H])([H])C([H])(C([H])([H])[H])C([H])([H])[H])C([H])([H])C([H])(C([H])([H])[H])C([H])([H])[H])C([H])(C([H])([H])[H])C([H])([H])[H])[C@]([H])(C(=O)N([H])[H])C([H])([H])C([H])(C([H])([H])[H])C([H])([H])[H])[C@]([H])(O[H])C(=O)O[H])C([H])([H])[H]


 68 67  0  0  0  0  0  0  0  0999 V2000
    5.2303  -49.3696  -25.3647 C   0  0  0  0  0  0  0  0  0  0  0  0
    4.5757  -48.3062  -25.0378 O   0  0  0  0  0  0  0  0  0  0  0  0
    6.3650  -49.1672  -26.1759 N   0  0  0  0  0  0  0  0  0  0  0  0
    6.8034  -50.0796  -26.5231 H   0  0  0  0  0  0  0  0  0  0  0  0
    6.9666  -47.9949  -26.6382 C   0  0  0  0  0  0  0  0  0  0  0  0
    6.5493  -47.4579  -27.9800 C   0  0  0  0  0  0  0  0  0  0  0  0
    6.9154  -48.1949  -29.1016 N   0  0  0  0  0  0  0  0  0  0  0  0
    5.9000  -46.4005  -28.0294 O   0  0  0  0  0  0  0  0  0  0  0  0
    7.5737  -49.0807  -28.8604 H   0  0  0  0  0  0  0  0  0  0  0  0
    6.7646  -48.1378  -30.4894 C   0  0  0  0  0  0  0  0  0  0  0  0
    5.3938  -48.5726  -30.9970 C   0  0  0  0  0  0  0  0  0  0  0  0
    4.9731  -49.6433  -30.5662 O   0  0  0  0  0  0  0  0  0  0  0  0
    4.6739  -47.7686  -31.9094 N   0  0  0  0  0  0  0  0  0  0  0  0
    3.5904  -48.5835  -31.7163 H   0  0  0  0  0  0  0  0  0  0  0  0
    3.9629  -47.0416  -32.7635 C   0  0  0  0  0  0  0  0  0  0  0  0
    2.4268  -47.4083  -32.8568 C   0  0  0  0  0  0  0  0  0  0  0  0
    4.0025  -45.5478  -32.7086 C   0  0  0  0  0  0  0  0  0  0  0  0
    3.9987  -44.9502  -31.4650 O   0  0  0  0  0  0  0  0  0  0  0  0
    4.0413  -44.8082  -33.7306 O   0  0  0  0  0  0  0  0  0  0  0  0
    4.6022  -45.2454  -30.6985 H   0  0  0  0  0  0  0  0  0  0  0  0
    7.7849  -48.8727  -31.2944 C   0  0  0  0  0  0  0  0  0  0  0  0
    8.8199  -49.4034  -30.5091 O   0  0  0  0  0  0  0  0  0  0  0  0
    9.4898  -48.6854  -30.3587 H   0  0  0  0  0  0  0  0  0  0  0  0
    8.2488  -48.1181  -32.4492 C   0  0  0  0  0  0  0  0  0  0  0  0
    7.7281  -48.4422  -33.7215 O   0  0  0  0  0  0  0  0  0  0  0  0
    9.0810  -47.1852  -32.3972 O   0  0  0  0  0  0  0  0  0  0  0  0
    7.7149  -49.4564  -33.9619 H   0  0  0  0  0  0  0  0  0  0  0  0
    8.4806  -47.9320  -26.5632 C   0  0  0  0  0  0  0  0  0  0  0  0
    9.0502  -49.2809  -26.3740 C   0  0  0  0  0  0  0  0  0  0  0  0
    9.2238  -49.7073  -25.1954 O   0  0  0  0  0  0  0  0  0  0  0  0
    9.4288  -50.1395  -27.4219 N   0  0  0  0  0  0  0  0  0  0  0  0
    8.9330  -50.2667  -28.3140 H   0  0  0  0  0  0  0  0  0  0  0  0
   10.3085  -50.7212  -27.2986 H   0  0  0  0  0  0  0  0  0  0  0  0
    8.9032  -46.9254  -25.4936 C   0  0  0  0  0  0  0  0  0  0  0  0
    7.8570  -46.4609  -24.5698 C   0  0  0  0  0  0  0  0  0  0  0  0
    7.9413  -44.9221  -24.5413 C   0  0  0  0  0  0  0  0  0  0  0  0
    7.8297  -46.9235  -23.1810 C   0  0  0  0  0  0  0  0  0  0  0  0
    4.6827  -50.6084  -24.8202 C   0  0  0  0  0  0  0  0  0  0  0  0
    5.6742  -50.6359  -22.3451 C   0  0  0  0  0  0  0  0  0  0  0  0
    6.7983  -50.2587  -22.5830 O   0  0  0  0  0  0  0  0  0  0  0  0
    4.7537  -50.7723  -23.4398 N   0  0  0  0  0  0  0  0  0  0  0  0
    3.7790  -51.2335  -23.0014 H   0  0  0  0  0  0  0  0  0  0  0  0
    5.1150  -50.9966  -21.0091 C   0  0  0  0  0  0  0  0  0  0  0  0
    4.0020  -50.3183  -20.4305 C   0  0  0  0  0  0  0  0  0  0  0  0
    3.6783  -50.9104  -19.1416 O   0  0  0  0  0  0  0  0  0  0  0  0
    4.3616  -51.5509  -18.9060 H   0  0  0  0  0  0  0  0  0  0  0  0
    2.7758  -49.8059  -20.9922 C   0  0  0  0  0  0  0  0  0  0  0  0
    1.5011  -51.7950  -21.7512 C   0  0  0  0  0  0  0  0  0  0  0  0
    1.5089  -52.1792  -20.5037 O   0  0  0  0  0  0  0  0  0  0  0  0
    2.1255  -50.6133  -22.0361 N   0  0  0  0  0  0  0  0  0  0  0  0
    2.1545  -50.2099  -22.9992 H   0  0  0  0  0  0  0  0  0  0  0  0
    0.7675  -52.8019  -22.5923 C   0  0  0  0  0  0  0  0  0  0  0  0
   -1.7636  -53.7066  -19.9756 C   0  0  0  0  0  0  0  0  0  0  0  0
   -1.3599  -54.0891  -21.3966 C   0  0  0  0  0  0  0  0  0  0  0  0
   -2.0249  -54.9665  -21.9001 O   0  0  0  0  0  0  0  0  0  0  0  0
   -0.2778  -53.3669  -21.8891 N   0  0  0  0  0  0  0  0  0  0  0  0
   -0.3951  -54.2486  -22.9689 H   0  0  0  0  0  0  0  0  0  0  0  0
    0.3661  -51.9811  -23.8337 C   0  0  0  0  0  0  0  0  0  0  0  0
   -0.5563  -52.6671  -24.7726 C   0  0  0  0  0  0  0  0  0  0  0  0
   -1.0724  -51.8466  -25.9153 C   0  0  0  0  0  0  0  0  0  0  0  0
    0.1493  -53.8857  -25.3534 C   0  0  0  0  0  0  0  0  0  0  0  0
    2.6931  -48.3674  -21.2456 C   0  0  0  0  0  0  0  0  0  0  0  0
    3.8642  -47.5984  -20.5844 C   0  0  0  0  0  0  0  0  0  0  0  0
    4.3816  -46.4837  -21.4276 C   0  0  0  0  0  0  0  0  0  0  0  0
    3.2231  -46.9419  -19.3437 C   0  0  0  0  0  0  0  0  0  0  0  0
    3.4284  -51.1667  -25.3590 C   0  0  0  0  0  0  0  0  0  0  0  0
    3.0297  -50.7658  -26.7401 C   0  0  0  0  0  0  0  0  0  0  0  0
    3.5976  -52.7037  -25.4277 C   0  0  0  0  0  0  0  0  0  0  0  0
 53 54  1  0  0  0
 54 55  2  0  0  0
 54 56  1  0  0  0
 56 52  1  0  0  0
 52 58  1  0  0  0
 58 59  1  0  0  0
 59 60  1  0  0  0
 59 61  1  0  0  0
 52 48  1  0  0  0
 48 49  2  0  0  0
 48 50  1  0  0  0
 50 47  1  0  0  0
 47 44  1  0  0  0
 44 45  1  0  0  0
 44 43  1  0  0  0
 43 39  1  0  0  0
 39 40  2  0  0  0
 39 41  1  0  0  0
 41 38  1  0  0  0
 38 66  1  0  0  0
 66 67  1  0  0  0
 66 68  1  0  0  0
 38  1  1  0  0  0
  1  2  2  0  0  0
  1  3  1  0  0  0
  3  5  1  0  0  0
  5 28  1  0  0  0
 28 34  1  0  0  0
 34 35  1  0  0  0
 35 36  1  0  0  0
 35 37  1  0  0  0
 28 29  1  0  0  0
 29 30  2  0  0  0
 29 31  1  0  0  0
  5  6  1  0  0  0
  6  7  1  0  0  0
  7 10  1  0  0  0
 10 11  1  0  0  0
 11 12  2  0  0  0
 11 13  1  0  0  0
 13 15  1  0  0  0
 15 16  1  0  0  0
 15 17  1  0  0  0
 17 18  1  0  0  0
 17 19  2  0  0  0
 10 21  1  0  0  0
 21 22  1  0  0  0
 21 24  1  0  0  0
 24 25  1  0  0  0
 24 26  2  0  0  0
  6  8  2  0  0  0
 47 62  1  0  0  0
 62 63  1  0  0  0
 63 64  1  0  0  0
 63 65  1  0  0  0
 56 57  1  0  0  0
 50 51  1  0  0  0
 45 46  1  0  0  0
 41 42  1  0  0  0
  3  4  1  0  0  0
 31 32  1  0  0  0
 31 33  1  0  0  0
  7  9  1  0  0  0
 13 14  1  0  0  0
 18 20  1  0  0  0
 22 23  1  0  0  0
 25 27  1  0  0  0
M  END
> <minimizedAffinity>
-6.62028

> <CNNscore>
0.0717052072

> <CNNaffinity>
6.8195786476

> <CNN_VS>
0.4889993072

> <CNNaffinity_variance>
0.5600646138

$$$$
[H]OC(=O)[C@@]([H])(N([H])C(=O)[C@@]([H])(N([H])C(=O)[C@@]([H])(N([H])C(=O)[C@@]([H])(N([H])C(=O)C([H])([H])[C@]([H])(O[H])[C@]([H])(N([H])C(=O)[C@@]([H])(N([H])C(=O)C([H])([H])[H])C([H])([H])C([H])(C([H])([H])[H])C([H])([H])[H])C([H])([H])C([H])(C([H])([H])[H])C([H])([H])[H])C([H])(C([H])([H])[H])C([H])([H])[H])[C@]([H])(C(=O)N([H])[H])C([H])([H])C([H])(C([H])([H])[H])C([H])([H])[H])[C@]([H])(O[H])C(=O)O[H])C([H])([H])[H]


 68 67  0  0  0  0  0  0  0  0999 V2000
    0.1422  -51.3522  -20.6310 C   0  0  0  0  0  0  0  0  0  0  0  0
    0.3770  -50.2077  -21.1799 O   0  0  0  0  0  0  0  0  0  0  0  0
    0.2236  -51.3871  -19.2243 N   0  0  0  0  0  0  0  0  0  0  0  0
    0.1446  -52.3753  -18.8216 H   0  0  0  0  0  0  0  0  0  0  0  0
    0.4426  -50.3714  -18.2914 C   0  0  0  0  0  0  0  0  0  0  0  0
    1.7634  -49.6515  -18.3144 C   0  0  0  0  0  0  0  0  0  0  0  0
    1.8018  -48.4140  -18.9487 N   0  0  0  0  0  0  0  0  0  0  0  0
    2.7461  -50.1797  -17.7691 O   0  0  0  0  0  0  0  0  0  0  0  0
    0.8306  -48.1404  -19.4565 H   0  0  0  0  0  0  0  0  0  0  0  0
    2.7246  -47.3986  -19.2122 C   0  0  0  0  0  0  0  0  0  0  0  0
    3.8430  -47.7910  -20.1718 C   0  0  0  0  0  0  0  0  0  0  0  0
    4.4132  -48.8522  -19.9316 O   0  0  0  0  0  0  0  0  0  0  0  0
    4.1803  -46.9612  -21.2648 N   0  0  0  0  0  0  0  0  0  0  0  0
    4.9802  -47.9681  -21.7356 H   0  0  0  0  0  0  0  0  0  0  0  0
    4.5262  -46.2127  -22.3058 C   0  0  0  0  0  0  0  0  0  0  0  0
    4.7599  -46.9954  -23.6607 C   0  0  0  0  0  0  0  0  0  0  0  0
    3.7158  -45.0145  -22.6848 C   0  0  0  0  0  0  0  0  0  0  0  0
    4.1493  -43.7804  -22.2455 O   0  0  0  0  0  0  0  0  0  0  0  0
    2.6650  -45.0691  -23.3819 O   0  0  0  0  0  0  0  0  0  0  0  0
    5.1152  -43.4646  -22.3229 H   0  0  0  0  0  0  0  0  0  0  0  0
    3.3680  -46.7671  -18.0220 C   0  0  0  0  0  0  0  0  0  0  0  0
    2.7606  -47.1389  -16.8127 O   0  0  0  0  0  0  0  0  0  0  0  0
    1.9737  -46.5494  -16.6708 H   0  0  0  0  0  0  0  0  0  0  0  0
    3.5539  -45.3314  -18.1714 C   0  0  0  0  0  0  0  0  0  0  0  0
    2.5049  -44.4701  -17.7807 O   0  0  0  0  0  0  0  0  0  0  0  0
    4.5917  -44.7951  -18.6198 O   0  0  0  0  0  0  0  0  0  0  0  0
    1.5548  -44.7269  -18.1241 H   0  0  0  0  0  0  0  0  0  0  0  0
    0.1145  -50.6936  -16.8456 C   0  0  0  0  0  0  0  0  0  0  0  0
   -0.8798  -51.7820  -16.7662 C   0  0  0  0  0  0  0  0  0  0  0  0
   -0.5502  -52.9365  -17.1657 O   0  0  0  0  0  0  0  0  0  0  0  0
   -2.1907  -51.6290  -16.2796 N   0  0  0  0  0  0  0  0  0  0  0  0
   -2.4798  -51.0497  -15.4804 H   0  0  0  0  0  0  0  0  0  0  0  0
   -2.9712  -52.1546  -16.7717 H   0  0  0  0  0  0  0  0  0  0  0  0
   -0.3034  -49.4181  -16.1144 C   0  0  0  0  0  0  0  0  0  0  0  0
    0.3791  -49.1281  -14.8441 C   0  0  0  0  0  0  0  0  0  0  0  0
    1.3564  -50.2926  -14.5894 C   0  0  0  0  0  0  0  0  0  0  0  0
   -0.3890  -48.9244  -13.6146 C   0  0  0  0  0  0  0  0  0  0  0  0
   -0.1834  -52.4192  -21.5725 C   0  0  0  0  0  0  0  0  0  0  0  0
    0.8652  -52.5022  -24.0227 C   0  0  0  0  0  0  0  0  0  0  0  0
   -0.0595  -52.0324  -24.6446 O   0  0  0  0  0  0  0  0  0  0  0  0
    0.7270  -52.6486  -22.6001 N   0  0  0  0  0  0  0  0  0  0  0  0
    1.6808  -53.2015  -22.2268 H   0  0  0  0  0  0  0  0  0  0  0  0
    2.1697  -52.9711  -24.5759 C   0  0  0  0  0  0  0  0  0  0  0  0
    2.9472  -52.1923  -25.4828 C   0  0  0  0  0  0  0  0  0  0  0  0
    3.5024  -53.0490  -26.5193 O   0  0  0  0  0  0  0  0  0  0  0  0
    3.1244  -53.9338  -26.4358 H   0  0  0  0  0  0  0  0  0  0  0  0
    3.8682  -51.0995  -25.2844 C   0  0  0  0  0  0  0  0  0  0  0  0
    3.6812  -49.0581  -26.6826 C   0  0  0  0  0  0  0  0  0  0  0  0
    2.8323  -48.6208  -25.7928 O   0  0  0  0  0  0  0  0  0  0  0  0
    4.2207  -50.2947  -26.4644 N   0  0  0  0  0  0  0  0  0  0  0  0
    4.9252  -50.7227  -27.1059 H   0  0  0  0  0  0  0  0  0  0  0  0
    3.8559  -48.0349  -27.7697 C   0  0  0  0  0  0  0  0  0  0  0  0
    3.6045  -44.4380  -26.7348 C   0  0  0  0  0  0  0  0  0  0  0  0
    2.7189  -45.6652  -26.9305 C   0  0  0  0  0  0  0  0  0  0  0  0
    1.5461  -45.4961  -26.6831 O   0  0  0  0  0  0  0  0  0  0  0  0
    3.4079  -46.7950  -27.3594 N   0  0  0  0  0  0  0  0  0  0  0  0
    2.1671  -47.4153  -27.1775 H   0  0  0  0  0  0  0  0  0  0  0  0
    5.3621  -48.1261  -28.0846 C   0  0  0  0  0  0  0  0  0  0  0  0
    6.2545  -47.4745  -27.0937 C   0  0  0  0  0  0  0  0  0  0  0  0
    7.3229  -48.3369  -26.4936 C   0  0  0  0  0  0  0  0  0  0  0  0
    6.9330  -46.2805  -27.7528 C   0  0  0  0  0  0  0  0  0  0  0  0
    4.9984  -51.3185  -24.3816 C   0  0  0  0  0  0  0  0  0  0  0  0
    4.7771  -50.6388  -23.0071 C   0  0  0  0  0  0  0  0  0  0  0  0
    4.2691  -51.5767  -21.9663 C   0  0  0  0  0  0  0  0  0  0  0  0
    6.1968  -50.2273  -22.5641 C   0  0  0  0  0  0  0  0  0  0  0  0
   -0.7710  -53.6830  -21.0896 C   0  0  0  0  0  0  0  0  0  0  0  0
   -1.3283  -54.6204  -22.1082 C   0  0  0  0  0  0  0  0  0  0  0  0
    0.3571  -54.4819  -20.3934 C   0  0  0  0  0  0  0  0  0  0  0  0
 53 54  1  0  0  0
 54 55  2  0  0  0
 54 56  1  0  0  0
 56 52  1  0  0  0
 52 58  1  0  0  0
 58 59  1  0  0  0
 59 60  1  0  0  0
 59 61  1  0  0  0
 52 48  1  0  0  0
 48 49  2  0  0  0
 48 50  1  0  0  0
 50 47  1  0  0  0
 47 44  1  0  0  0
 44 45  1  0  0  0
 44 43  1  0  0  0
 43 39  1  0  0  0
 39 40  2  0  0  0
 39 41  1  0  0  0
 41 38  1  0  0  0
 38 66  1  0  0  0
 66 67  1  0  0  0
 66 68  1  0  0  0
 38  1  1  0  0  0
  1  2  2  0  0  0
  1  3  1  0  0  0
  3  5  1  0  0  0
  5 28  1  0  0  0
 28 34  1  0  0  0
 34 35  1  0  0  0
 35 36  1  0  0  0
 35 37  1  0  0  0
 28 29  1  0  0  0
 29 30  2  0  0  0
 29 31  1  0  0  0
  5  6  1  0  0  0
  6  7  1  0  0  0
  7 10  1  0  0  0
 10 11  1  0  0  0
 11 12  2  0  0  0
 11 13  1  0  0  0
 13 15  1  0  0  0
 15 16  1  0  0  0
 15 17  1  0  0  0
 17 18  1  0  0  0
 17 19  2  0  0  0
 10 21  1  0  0  0
 21 22  1  0  0  0
 21 24  1  0  0  0
 24 25  1  0  0  0
 24 26  2  0  0  0
  6  8  2  0  0  0
 47 62  1  0  0  0
 62 63  1  0  0  0
 63 64  1  0  0  0
 63 65  1  0  0  0
 56 57  1  0  0  0
 50 51  1  0  0  0
 45 46  1  0  0  0
 41 42  1  0  0  0
  3  4  1  0  0  0
 31 32  1  0  0  0
 31 33  1  0  0  0
  7  9  1  0  0  0
 13 14  1  0  0  0
 18 20  1  0  0  0
 22 23  1  0  0  0
 25 27  1  0  0  0
M  END
> <minimizedAffinity>
-6.27299

> <CNNscore>
0.0549249277

> <CNNaffinity>
6.3370423317

> <CNN_VS>
0.3480615914

> <CNNaffinity_variance>
0.9475962520

$$$$
[H]OC(=O)[C@@]([H])(N([H])C(=O)[C@@]([H])(N([H])C(=O)[C@@]([H])(N([H])C(=O)[C@@]([H])(N([H])C(=O)C([H])([H])[C@]([H])(O[H])[C@]([H])(N([H])C(=O)[C@@]([H])(N([H])C(=O)C([H])([H])[H])C([H])([H])C([H])(C([H])([H])[H])C([H])([H])[H])C([H])([H])C([H])(C([H])([H])[H])C([H])([H])[H])C([H])(C([H])([H])[H])C([H])([H])[H])[C@]([H])(C(=O)N([H])[H])C([H])([H])C([H])(C([H])([H])[H])C([H])([H])[H])[C@]([H])(O[H])C(=O)O[H])C([H])([H])[H]


 68 67  0  0  0  0  0  0  0  0999 V2000
    0.6814  -51.0629  -21.0344 C   0  0  0  0  0  0  0  0  0  0  0  0
   -0.3143  -50.2476  -21.1342 O   0  0  0  0  0  0  0  0  0  0  0  0
    1.6899  -50.6919  -20.1223 N   0  0  0  0  0  0  0  0  0  0  0  0
    2.5493  -51.3284  -20.1618 H   0  0  0  0  0  0  0  0  0  0  0  0
    1.7747  -49.6188  -19.2328 C   0  0  0  0  0  0  0  0  0  0  0  0
    2.8049  -48.5539  -19.4927 C   0  0  0  0  0  0  0  0  0  0  0  0
    3.7173  -48.7883  -20.5164 N   0  0  0  0  0  0  0  0  0  0  0  0
    2.7938  -47.5239  -18.7990 O   0  0  0  0  0  0  0  0  0  0  0  0
    3.6207  -49.8156  -20.9761 H   0  0  0  0  0  0  0  0  0  0  0  0
    4.7943  -48.1434  -21.1296 C   0  0  0  0  0  0  0  0  0  0  0  0
    4.5351  -47.7017  -22.5660 C   0  0  0  0  0  0  0  0  0  0  0  0
    4.0086  -48.5340  -23.3002 O   0  0  0  0  0  0  0  0  0  0  0  0
    4.8909  -46.4038  -22.9972 N   0  0  0  0  0  0  0  0  0  0  0  0
    4.2064  -46.6417  -24.1592 H   0  0  0  0  0  0  0  0  0  0  0  0
    5.2060  -45.1929  -23.4420 C   0  0  0  0  0  0  0  0  0  0  0  0
    4.7207  -44.8582  -24.9101 C   0  0  0  0  0  0  0  0  0  0  0  0
    4.8757  -43.9765  -22.6375 C   0  0  0  0  0  0  0  0  0  0  0  0
    5.5420  -42.8064  -22.9388 O   0  0  0  0  0  0  0  0  0  0  0  0
    4.0248  -43.9605  -21.7054 O   0  0  0  0  0  0  0  0  0  0  0  0
    5.6580  -42.4551  -23.8885 H   0  0  0  0  0  0  0  0  0  0  0  0
    6.0936  -48.8790  -21.1235 C   0  0  0  0  0  0  0  0  0  0  0  0
    6.0109  -50.1366  -21.7409 O   0  0  0  0  0  0  0  0  0  0  0  0
    5.6674  -50.7850  -21.0711 H   0  0  0  0  0  0  0  0  0  0  0  0
    6.7250  -48.9062  -19.8125 C   0  0  0  0  0  0  0  0  0  0  0  0
    5.9096  -48.7734  -18.6670 O   0  0  0  0  0  0  0  0  0  0  0  0
    7.9535  -49.0480  -19.6215 O   0  0  0  0  0  0  0  0  0  0  0  0
    5.2136  -47.9978  -18.6925 H   0  0  0  0  0  0  0  0  0  0  0  0
    1.8238  -49.9619  -17.7557 C   0  0  0  0  0  0  0  0  0  0  0  0
    3.1410  -50.5219  -17.3936 C   0  0  0  0  0  0  0  0  0  0  0  0
    3.5646  -51.5346  -18.0231 O   0  0  0  0  0  0  0  0  0  0  0  0
    3.9715  -50.0119  -16.3793 N   0  0  0  0  0  0  0  0  0  0  0  0
    4.1199  -49.0190  -16.1558 H   0  0  0  0  0  0  0  0  0  0  0  0
    4.5054  -50.7032  -15.7755 H   0  0  0  0  0  0  0  0  0  0  0  0
    0.6459  -50.8670  -17.3964 C   0  0  0  0  0  0  0  0  0  0  0  0
   -0.1422  -50.4912  -16.2126 C   0  0  0  0  0  0  0  0  0  0  0  0
   -1.4629  -51.2823  -16.2892 C   0  0  0  0  0  0  0  0  0  0  0  0
   -0.4850  -49.0906  -15.9591 C   0  0  0  0  0  0  0  0  0  0  0  0
    0.5817  -52.2464  -21.8830 C   0  0  0  0  0  0  0  0  0  0  0  0
    2.9808  -52.1483  -23.0427 C   0  0  0  0  0  0  0  0  0  0  0  0
    3.5890  -51.5597  -22.1789 O   0  0  0  0  0  0  0  0  0  0  0  0
    1.5880  -52.4277  -22.8276 N   0  0  0  0  0  0  0  0  0  0  0  0
    1.1871  -52.9052  -23.8105 H   0  0  0  0  0  0  0  0  0  0  0  0
    3.5197  -52.6255  -24.3502 C   0  0  0  0  0  0  0  0  0  0  0  0
    2.8408  -52.4159  -25.5866 C   0  0  0  0  0  0  0  0  0  0  0  0
    3.6556  -52.9074  -26.6871 O   0  0  0  0  0  0  0  0  0  0  0  0
    4.4209  -53.3764  -26.3305 H   0  0  0  0  0  0  0  0  0  0  0  0
    2.0511  -51.3178  -26.0889 C   0  0  0  0  0  0  0  0  0  0  0  0
    3.3331  -49.2927  -26.7314 C   0  0  0  0  0  0  0  0  0  0  0  0
    3.6233  -49.9224  -27.8373 O   0  0  0  0  0  0  0  0  0  0  0  0
    2.5495  -49.9579  -25.8307 N   0  0  0  0  0  0  0  0  0  0  0  0
    2.2442  -49.5316  -24.9274 H   0  0  0  0  0  0  0  0  0  0  0  0
    3.9660  -47.9293  -26.7375 C   0  0  0  0  0  0  0  0  0  0  0  0
    7.2330  -48.7182  -25.0713 C   0  0  0  0  0  0  0  0  0  0  0  0
    6.6786  -47.9004  -26.2342 C   0  0  0  0  0  0  0  0  0  0  0  0
    7.5039  -47.2736  -26.8599 O   0  0  0  0  0  0  0  0  0  0  0  0
    5.2997  -48.0009  -26.3873 N   0  0  0  0  0  0  0  0  0  0  0  0
    5.5053  -47.0232  -27.3666 H   0  0  0  0  0  0  0  0  0  0  0  0
    3.6805  -47.4276  -28.1667 C   0  0  0  0  0  0  0  0  0  0  0  0
    3.0549  -46.0843  -28.2508 C   0  0  0  0  0  0  0  0  0  0  0  0
    2.4382  -45.7198  -29.5670 C   0  0  0  0  0  0  0  0  0  0  0  0
    1.9743  -45.9770  -27.1827 C   0  0  0  0  0  0  0  0  0  0  0  0
    0.5956  -51.4240  -25.9854 C   0  0  0  0  0  0  0  0  0  0  0  0
    0.0942  -52.8422  -26.3563 C   0  0  0  0  0  0  0  0  0  0  0  0
   -0.6369  -53.5131  -25.2444 C   0  0  0  0  0  0  0  0  0  0  0  0
   -0.9453  -52.5888  -27.4682 C   0  0  0  0  0  0  0  0  0  0  0  0
    0.1480  -53.5356  -21.3128 C   0  0  0  0  0  0  0  0  0  0  0  0
    0.4398  -53.7876  -19.8712 C   0  0  0  0  0  0  0  0  0  0  0  0
   -1.3951  -53.5932  -21.4190 C   0  0  0  0  0  0  0  0  0  0  0  0
 53 54  1  0  0  0
 54 55  2  0  0  0
 54 56  1  0  0  0
 56 52  1  0  0  0
 52 58  1  0  0  0
 58 59  1  0  0  0
 59 60  1  0  0  0
 59 61  1  0  0  0
 52 48  1  0  0  0
 48 49  2  0  0  0
 48 50  1  0  0  0
 50 47  1  0  0  0
 47 44  1  0  0  0
 44 45  1  0  0  0
 44 43  1  0  0  0
 43 39  1  0  0  0
 39 40  2  0  0  0
 39 41  1  0  0  0
 41 38  1  0  0  0
 38 66  1  0  0  0
 66 67  1  0  0  0
 66 68  1  0  0  0
 38  1  1  0  0  0
  1  2  2  0  0  0
  1  3  1  0  0  0
  3  5  1  0  0  0
  5 28  1  0  0  0
 28 34  1  0  0  0
 34 35  1  0  0  0
 35 36  1  0  0  0
 35 37  1  0  0  0
 28 29  1  0  0  0
 29 30  2  0  0  0
 29 31  1  0  0  0
  5  6  1  0  0  0
  6  7  1  0  0  0
  7 10  1  0  0  0
 10 11  1  0  0  0
 11 12  2  0  0  0
 11 13  1  0  0  0
 13 15  1  0  0  0
 15 16  1  0  0  0
 15 17  1  0  0  0
 17 18  1  0  0  0
 17 19  2  0  0  0
 10 21  1  0  0  0
 21 22  1  0  0  0
 21 24  1  0  0  0
 24 25  1  0  0  0
 24 26  2  0  0  0
  6  8  2  0  0  0
 47 62  1  0  0  0
 62 63  1  0  0  0
 63 64  1  0  0  0
 63 65  1  0  0  0
 56 57  1  0  0  0
 50 51  1  0  0  0
 45 46  1  0  0  0
 41 42  1  0  0  0
  3  4  1  0  0  0
 31 32  1  0  0  0
 31 33  1  0  0  0
  7  9  1  0  0  0
 13 14  1  0  0  0
 18 20  1  0  0  0
 22 23  1  0  0  0
 25 27  1  0  0  0
M  END
> <minimizedAffinity>
-6.84671

> <CNNscore>
0.0515053086

> <CNNaffinity>
6.3671379089

> <CNN_VS>
0.3279414177

> <CNNaffinity_variance>
1.1734069586

$$$$
[H]OC(=O)[C@@]([H])(N([H])C(=O)[C@@]([H])(N([H])C(=O)[C@@]([H])(N([H])C(=O)[C@@]([H])(N([H])C(=O)C([H])([H])[C@]([H])(O[H])[C@]([H])(N([H])C(=O)[C@@]([H])(N([H])C(=O)C([H])([H])[H])C([H])([H])C([H])(C([H])([H])[H])C([H])([H])[H])C([H])([H])C([H])(C([H])([H])[H])C([H])([H])[H])C([H])(C([H])([H])[H])C([H])([H])[H])[C@]([H])(C(=O)N([H])[H])C([H])([H])C([H])(C([H])([H])[H])C([H])([H])[H])[C@]([H])(O[H])C(=O)O[H])C([H])([H])[H]


 68 67  0  0  0  0  0  0  0  0999 V2000
    0.5139  -51.6029  -20.6734 C   0  0  0  0  0  0  0  0  0  0  0  0
    0.2200  -50.3691  -20.9132 O   0  0  0  0  0  0  0  0  0  0  0  0
    1.0457  -51.8705  -19.3958 N   0  0  0  0  0  0  0  0  0  0  0  0
    1.3884  -52.8781  -19.2842 H   0  0  0  0  0  0  0  0  0  0  0  0
    1.2470  -51.0393  -18.2920 C   0  0  0  0  0  0  0  0  0  0  0  0
    2.6043  -50.4193  -18.1014 C   0  0  0  0  0  0  0  0  0  0  0  0
    2.6799  -49.0307  -18.1396 N   0  0  0  0  0  0  0  0  0  0  0  0
    3.5832  -51.1600  -17.9139 O   0  0  0  0  0  0  0  0  0  0  0  0
    1.6996  -48.5357  -18.4042 H   0  0  0  0  0  0  0  0  0  0  0  0
    3.6446  -48.0287  -18.0073 C   0  0  0  0  0  0  0  0  0  0  0  0
    3.2031  -46.8288  -17.1761 C   0  0  0  0  0  0  0  0  0  0  0  0
    3.5026  -45.7238  -17.6215 O   0  0  0  0  0  0  0  0  0  0  0  0
    2.4921  -47.0099  -15.9684 N   0  0  0  0  0  0  0  0  0  0  0  0
    2.2617  -45.6602  -15.9440 H   0  0  0  0  0  0  0  0  0  0  0  0
    1.8193  -47.1357  -14.8304 C   0  0  0  0  0  0  0  0  0  0  0  0
    2.7037  -47.2237  -13.5216 C   0  0  0  0  0  0  0  0  0  0  0  0
    0.7156  -46.1861  -14.4896 C   0  0  0  0  0  0  0  0  0  0  0  0
   -0.4384  -46.2449  -15.2437 O   0  0  0  0  0  0  0  0  0  0  0  0
    0.7800  -45.3406  -13.5547 O   0  0  0  0  0  0  0  0  0  0  0  0
   -0.9175  -47.1157  -15.4696 H   0  0  0  0  0  0  0  0  0  0  0  0
    4.2202  -47.4957  -19.2777 C   0  0  0  0  0  0  0  0  0  0  0  0
    3.4498  -47.8223  -20.4044 O   0  0  0  0  0  0  0  0  0  0  0  0
    3.7077  -48.7356  -20.6980 H   0  0  0  0  0  0  0  0  0  0  0  0
    5.6375  -47.7907  -19.4271 C   0  0  0  0  0  0  0  0  0  0  0  0
    6.1654  -48.9219  -18.7664 O   0  0  0  0  0  0  0  0  0  0  0  0
    6.4333  -47.1111  -20.1131 O   0  0  0  0  0  0  0  0  0  0  0  0
    5.9008  -49.0267  -17.7637 H   0  0  0  0  0  0  0  0  0  0  0  0
    0.7861  -51.5704  -16.9476 C   0  0  0  0  0  0  0  0  0  0  0  0
   -0.6536  -51.8958  -16.9807 C   0  0  0  0  0  0  0  0  0  0  0  0
   -1.4854  -51.0074  -16.6342 O   0  0  0  0  0  0  0  0  0  0  0  0
   -1.1795  -53.1419  -17.3667 N   0  0  0  0  0  0  0  0  0  0  0  0
   -0.8327  -53.7395  -18.1286 H   0  0  0  0  0  0  0  0  0  0  0  0
   -2.0159  -53.5189  -16.8320 H   0  0  0  0  0  0  0  0  0  0  0  0
    1.1738  -50.5871  -15.8436 C   0  0  0  0  0  0  0  0  0  0  0  0
    1.8209  -51.1520  -14.6495 C   0  0  0  0  0  0  0  0  0  0  0  0
    1.0167  -50.6552  -13.4320 C   0  0  0  0  0  0  0  0  0  0  0  0
    3.2354  -50.8931  -14.3751 C   0  0  0  0  0  0  0  0  0  0  0  0
    0.2285  -52.5178  -21.7745 C   0  0  0  0  0  0  0  0  0  0  0  0
    2.3775  -52.0342  -23.2772 C   0  0  0  0  0  0  0  0  0  0  0  0
    2.6433  -50.9226  -22.8821 O   0  0  0  0  0  0  0  0  0  0  0  0
    1.2400  -52.7058  -22.7121 N   0  0  0  0  0  0  0  0  0  0  0  0
    1.1157  -53.7037  -23.2984 H   0  0  0  0  0  0  0  0  0  0  0  0
    3.1078  -52.8117  -24.3212 C   0  0  0  0  0  0  0  0  0  0  0  0
    2.8204  -52.6932  -25.7129 C   0  0  0  0  0  0  0  0  0  0  0  0
    3.9341  -53.2101  -26.4931 O   0  0  0  0  0  0  0  0  0  0  0  0
    4.5695  -53.6303  -25.8994 H   0  0  0  0  0  0  0  0  0  0  0  0
    2.1914  -51.6538  -26.4913 C   0  0  0  0  0  0  0  0  0  0  0  0
    3.0232  -49.3170  -26.5621 C   0  0  0  0  0  0  0  0  0  0  0  0
    3.6891  -49.6687  -27.6282 O   0  0  0  0  0  0  0  0  0  0  0  0
    2.2629  -50.2822  -25.9638 N   0  0  0  0  0  0  0  0  0  0  0  0
    1.6768  -50.0944  -25.1198 H   0  0  0  0  0  0  0  0  0  0  0  0
    3.2762  -47.8673  -26.2557 C   0  0  0  0  0  0  0  0  0  0  0  0
    6.5005  -47.1767  -24.4672 C   0  0  0  0  0  0  0  0  0  0  0  0
    5.0909  -47.6887  -24.1851 C   0  0  0  0  0  0  0  0  0  0  0  0
    4.8776  -47.9958  -23.0338 O   0  0  0  0  0  0  0  0  0  0  0  0
    4.2701  -47.7277  -25.3075 N   0  0  0  0  0  0  0  0  0  0  0  0
    3.3768  -48.3461  -24.4261 H   0  0  0  0  0  0  0  0  0  0  0  0
    3.5942  -47.2762  -27.6433 C   0  0  0  0  0  0  0  0  0  0  0  0
    2.9545  -45.9689  -27.9340 C   0  0  0  0  0  0  0  0  0  0  0  0
    2.5956  -45.7085  -29.3654 C   0  0  0  0  0  0  0  0  0  0  0  0
    1.6831  -45.8477  -27.1039 C   0  0  0  0  0  0  0  0  0  0  0  0
    0.9069  -51.9593  -27.1213 C   0  0  0  0  0  0  0  0  0  0  0  0
   -0.0192  -52.7670  -26.1779 C   0  0  0  0  0  0  0  0  0  0  0  0
   -1.4002  -52.2121  -26.0986 C   0  0  0  0  0  0  0  0  0  0  0  0
   -0.1432  -54.1417  -26.8678 C   0  0  0  0  0  0  0  0  0  0  0  0
   -0.5084  -53.7714  -21.5274 C   0  0  0  0  0  0  0  0  0  0  0  0
   -1.8323  -53.6728  -20.8460 C   0  0  0  0  0  0  0  0  0  0  0  0
   -0.8198  -54.4045  -22.9050 C   0  0  0  0  0  0  0  0  0  0  0  0
 53 54  1  0  0  0
 54 55  2  0  0  0
 54 56  1  0  0  0
 56 52  1  0  0  0
 52 58  1  0  0  0
 58 59  1  0  0  0
 59 60  1  0  0  0
 59 61  1  0  0  0
 52 48  1  0  0  0
 48 49  2  0  0  0
 48 50  1  0  0  0
 50 47  1  0  0  0
 47 44  1  0  0  0
 44 45  1  0  0  0
 44 43  1  0  0  0
 43 39  1  0  0  0
 39 40  2  0  0  0
 39 41  1  0  0  0
 41 38  1  0  0  0
 38 66  1  0  0  0
 66 67  1  0  0  0
 66 68  1  0  0  0
 38  1  1  0  0  0
  1  2  2  0  0  0
  1  3  1  0  0  0
  3  5  1  0  0  0
  5 28  1  0  0  0
 28 34  1  0  0  0
 34 35  1  0  0  0
 35 36  1  0  0  0
 35 37  1  0  0  0
 28 29  1  0  0  0
 29 30  2  0  0  0
 29 31  1  0  0  0
  5  6  1  0  0  0
  6  7  1  0  0  0
  7 10  1  0  0  0
 10 11  1  0  0  0
 11 12  2  0  0  0
 11 13  1  0  0  0
 13 15  1  0  0  0
 15 16  1  0  0  0
 15 17  1  0  0  0
 17 18  1  0  0  0
 17 19  2  0  0  0
 10 21  1  0  0  0
 21 22  1  0  0  0
 21 24  1  0  0  0
 24 25  1  0  0  0
 24 26  2  0  0  0
  6  8  2  0  0  0
 47 62  1  0  0  0
 62 63  1  0  0  0
 63 64  1  0  0  0
 63 65  1  0  0  0
 56 57  1  0  0  0
 50 51  1  0  0  0
 45 46  1  0  0  0
 41 42  1  0  0  0
  3  4  1  0  0  0
 31 32  1  0  0  0
 31 33  1  0  0  0
  7  9  1  0  0  0
 13 14  1  0  0  0
 18 20  1  0  0  0
 22 23  1  0  0  0
 25 27  1  0  0  0
M  END
> <minimizedAffinity>
-6.59688

> <CNNscore>
0.0430318788

> <CNNaffinity>
6.0872359276

> <CNN_VS>
0.2619451880

> <CNNaffinity_variance>
1.1985125542

$$$$
[H]OC(=O)[C@@]([H])(N([H])C(=O)[C@@]([H])(N([H])C(=O)[C@@]([H])(N([H])C(=O)[C@@]([H])(N([H])C(=O)C([H])([H])[C@]([H])(O[H])[C@]([H])(N([H])C(=O)[C@@]([H])(N([H])C(=O)C([H])([H])[H])C([H])([H])C([H])(C([H])([H])[H])C([H])([H])[H])C([H])([H])C([H])(C([H])([H])[H])C([H])([H])[H])C([H])(C([H])([H])[H])C([H])([H])[H])[C@]([H])(C(=O)N([H])[H])C([H])([H])C([H])(C([H])([H])[H])C([H])([H])[H])[C@]([H])(O[H])C(=O)O[H])C([H])([H])[H]


 68 67  0  0  0  0  0  0  0  0999 V2000
    0.1635  -51.5397  -20.7065 C   0  0  0  0  0  0  0  0  0  0  0  0
   -0.1226  -50.3569  -21.1368 O   0  0  0  0  0  0  0  0  0  0  0  0
    0.6155  -51.6157  -19.3735 N   0  0  0  0  0  0  0  0  0  0  0  0
    0.9570  -52.5919  -19.0990 H   0  0  0  0  0  0  0  0  0  0  0  0
    0.7413  -50.6336  -18.3888 C   0  0  0  0  0  0  0  0  0  0  0  0
    1.9907  -49.7959  -18.3695 C   0  0  0  0  0  0  0  0  0  0  0  0
    2.2753  -49.0524  -19.5103 N   0  0  0  0  0  0  0  0  0  0  0  0
    2.7004  -49.7974  -17.3504 O   0  0  0  0  0  0  0  0  0  0  0  0
    1.5589  -49.2465  -20.3619 H   0  0  0  0  0  0  0  0  0  0  0  0
    3.2457  -48.1545  -19.9621 C   0  0  0  0  0  0  0  0  0  0  0  0
    2.8506  -47.3665  -21.2066 C   0  0  0  0  0  0  0  0  0  0  0  0
    1.8614  -47.7724  -21.8113 O   0  0  0  0  0  0  0  0  0  0  0  0
    3.5988  -46.2392  -21.6145 N   0  0  0  0  0  0  0  0  0  0  0  0
    2.6151  -45.9615  -22.5258 H   0  0  0  0  0  0  0  0  0  0  0  0
    4.2717  -45.1725  -22.0302 C   0  0  0  0  0  0  0  0  0  0  0  0
    5.8414  -45.2417  -21.8450 C   0  0  0  0  0  0  0  0  0  0  0  0
    4.0673  -44.6334  -23.4099 C   0  0  0  0  0  0  0  0  0  0  0  0
    2.7722  -44.3918  -23.8200 O   0  0  0  0  0  0  0  0  0  0  0  0
    5.0082  -44.3866  -24.2142 O   0  0  0  0  0  0  0  0  0  0  0  0
    2.0872  -43.8944  -23.2523 H   0  0  0  0  0  0  0  0  0  0  0  0
    4.6033  -48.7225  -20.2140 C   0  0  0  0  0  0  0  0  0  0  0  0
    4.5616  -50.0320  -20.7171 O   0  0  0  0  0  0  0  0  0  0  0  0
    4.4700  -50.6534  -19.9475 H   0  0  0  0  0  0  0  0  0  0  0  0
    5.5084  -48.5525  -19.0871 C   0  0  0  0  0  0  0  0  0  0  0  0
    4.9732  -48.1392  -17.8471 O   0  0  0  0  0  0  0  0  0  0  0  0
    6.7423  -48.7554  -19.1335 O   0  0  0  0  0  0  0  0  0  0  0  0
    4.3193  -47.3282  -17.8825 H   0  0  0  0  0  0  0  0  0  0  0  0
    0.4449  -51.0584  -16.9628 C   0  0  0  0  0  0  0  0  0  0  0  0
   -0.8334  -51.7936  -16.8923 C   0  0  0  0  0  0  0  0  0  0  0  0
   -1.8652  -51.1813  -16.4902 O   0  0  0  0  0  0  0  0  0  0  0  0
   -0.9928  -53.1483  -17.2360 N   0  0  0  0  0  0  0  0  0  0  0  0
   -0.5371  -53.6355  -18.0188 H   0  0  0  0  0  0  0  0  0  0  0  0
   -1.6429  -53.7417  -16.6419 H   0  0  0  0  0  0  0  0  0  0  0  0
    0.5128  -49.8438  -16.0375 C   0  0  0  0  0  0  0  0  0  0  0  0
    0.8427  -50.1019  -14.6275 C   0  0  0  0  0  0  0  0  0  0  0  0
    1.6148  -51.4355  -14.5893 C   0  0  0  0  0  0  0  0  0  0  0  0
   -0.2136  -50.1786  -13.6167 C   0  0  0  0  0  0  0  0  0  0  0  0
   -0.0459  -52.6054  -21.6817 C   0  0  0  0  0  0  0  0  0  0  0  0
    2.1475  -52.1618  -23.1317 C   0  0  0  0  0  0  0  0  0  0  0  0
    2.5272  -51.1436  -22.6011 O   0  0  0  0  0  0  0  0  0  0  0  0
    0.9437  -52.7772  -22.6455 N   0  0  0  0  0  0  0  0  0  0  0  0
    0.7173  -53.6736  -23.3527 H   0  0  0  0  0  0  0  0  0  0  0  0
    2.7959  -52.8720  -24.2732 C   0  0  0  0  0  0  0  0  0  0  0  0
    2.6405  -52.4563  -25.6283 C   0  0  0  0  0  0  0  0  0  0  0  0
    3.8742  -52.6927  -26.3622 O   0  0  0  0  0  0  0  0  0  0  0  0
    4.4855  -53.1897  -25.8036 H   0  0  0  0  0  0  0  0  0  0  0  0
    1.9916  -51.3154  -26.2276 C   0  0  0  0  0  0  0  0  0  0  0  0
    3.1904  -49.1465  -26.3549 C   0  0  0  0  0  0  0  0  0  0  0  0
    3.6866  -49.5758  -27.4833 O   0  0  0  0  0  0  0  0  0  0  0  0
    2.3390  -49.9883  -25.6960 N   0  0  0  0  0  0  0  0  0  0  0  0
    1.8733  -49.7282  -24.7979 H   0  0  0  0  0  0  0  0  0  0  0  0
    3.7085  -47.7667  -26.0599 C   0  0  0  0  0  0  0  0  0  0  0  0
    7.1688  -47.3700  -24.6669 C   0  0  0  0  0  0  0  0  0  0  0  0
    5.8364  -48.0298  -24.3236 C   0  0  0  0  0  0  0  0  0  0  0  0
    5.8230  -48.6469  -23.2822 O   0  0  0  0  0  0  0  0  0  0  0  0
    4.8424  -47.8210  -25.2740 N   0  0  0  0  0  0  0  0  0  0  0  0
    4.1203  -48.7095  -24.4699 H   0  0  0  0  0  0  0  0  0  0  0  0
    3.9036  -47.1680  -27.4669 C   0  0  0  0  0  0  0  0  0  0  0  0
    3.0583  -45.9871  -27.7731 C   0  0  0  0  0  0  0  0  0  0  0  0
    1.8106  -45.8338  -26.9575 C   0  0  0  0  0  0  0  0  0  0  0  0
    3.8922  -44.7251  -27.5933 C   0  0  0  0  0  0  0  0  0  0  0  0
    0.5754  -51.4421  -26.5719 C   0  0  0  0  0  0  0  0  0  0  0  0
    0.0662  -52.8938  -26.3889 C   0  0  0  0  0  0  0  0  0  0  0  0
   -1.1915  -52.9762  -25.5935 C   0  0  0  0  0  0  0  0  0  0  0  0
   -0.2957  -53.3430  -27.8201 C   0  0  0  0  0  0  0  0  0  0  0  0
   -0.6067  -53.9019  -21.2573 C   0  0  0  0  0  0  0  0  0  0  0  0
   -1.9497  -53.8950  -20.6068 C   0  0  0  0  0  0  0  0  0  0  0  0
   -0.7882  -54.7662  -22.5284 C   0  0  0  0  0  0  0  0  0  0  0  0
 53 54  1  0  0  0
 54 55  2  0  0  0
 54 56  1  0  0  0
 56 52  1  0  0  0
 52 58  1  0  0  0
 58 59  1  0  0  0
 59 60  1  0  0  0
 59 61  1  0  0  0
 52 48  1  0  0  0
 48 49  2  0  0  0
 48 50  1  0  0  0
 50 47  1  0  0  0
 47 44  1  0  0  0
 44 45  1  0  0  0
 44 43  1  0  0  0
 43 39  1  0  0  0
 39 40  2  0  0  0
 39 41  1  0  0  0
 41 38  1  0  0  0
 38 66  1  0  0  0
 66 67  1  0  0  0
 66 68  1  0  0  0
 38  1  1  0  0  0
  1  2  2  0  0  0
  1  3  1  0  0  0
  3  5  1  0  0  0
  5 28  1  0  0  0
 28 34  1  0  0  0
 34 35  1  0  0  0
 35 36  1  0  0  0
 35 37  1  0  0  0
 28 29  1  0  0  0
 29 30  2  0  0  0
 29 31  1  0  0  0
  5  6  1  0  0  0
  6  7  1  0  0  0
  7 10  1  0  0  0
 10 11  1  0  0  0
 11 12  2  0  0  0
 11 13  1  0  0  0
 13 15  1  0  0  0
 15 16  1  0  0  0
 15 17  1  0  0  0
 17 18  1  0  0  0
 17 19  2  0  0  0
 10 21  1  0  0  0
 21 22  1  0  0  0
 21 24  1  0  0  0
 24 25  1  0  0  0
 24 26  2  0  0  0
  6  8  2  0  0  0
 47 62  1  0  0  0
 62 63  1  0  0  0
 63 64  1  0  0  0
 63 65  1  0  0  0
 56 57  1  0  0  0
 50 51  1  0  0  0
 45 46  1  0  0  0
 41 42  1  0  0  0
  3  4  1  0  0  0
 31 32  1  0  0  0
 31 33  1  0  0  0
  7  9  1  0  0  0
 13 14  1  0  0  0
 18 20  1  0  0  0
 22 23  1  0  0  0
 25 27  1  0  0  0
M  END
> <minimizedAffinity>
-6.56296

> <CNNscore>
0.0402707197

> <CNNaffinity>
6.0729417801

> <CNN_VS>
0.2445617318

> <CNNaffinity_variance>
1.5812473297

$$$$
[H]OC(=O)[C@@]([H])(N([H])C(=O)[C@@]([H])(N([H])C(=O)[C@@]([H])(N([H])C(=O)[C@@]([H])(N([H])C(=O)C([H])([H])[C@]([H])(O[H])[C@]([H])(N([H])C(=O)[C@@]([H])(N([H])C(=O)C([H])([H])[H])C([H])([H])C([H])(C([H])([H])[H])C([H])([H])[H])C([H])([H])C([H])(C([H])([H])[H])C([H])([H])[H])C([H])(C([H])([H])[H])C([H])([H])[H])[C@]([H])(C(=O)N([H])[H])C([H])([H])C([H])(C([H])([H])[H])C([H])([H])[H])[C@]([H])(O[H])C(=O)O[H])C([H])([H])[H]


 68 67  0  0  0  0  0  0  0  0999 V2000
    0.9477  -52.1589  -22.5918 C   0  0  0  0  0  0  0  0  0  0  0  0
    0.9621  -50.8825  -22.7836 O   0  0  0  0  0  0  0  0  0  0  0  0
    1.1745  -52.9541  -23.7332 N   0  0  0  0  0  0  0  0  0  0  0  0
    1.0318  -53.9994  -23.5542 H   0  0  0  0  0  0  0  0  0  0  0  0
    1.4934  -52.6053  -25.0472 C   0  0  0  0  0  0  0  0  0  0  0  0
    2.7129  -51.7576  -25.2865 C   0  0  0  0  0  0  0  0  0  0  0  0
    2.5394  -50.3773  -25.2773 N   0  0  0  0  0  0  0  0  0  0  0  0
    3.8067  -52.3156  -25.4720 O   0  0  0  0  0  0  0  0  0  0  0  0
    1.4594  -50.0621  -25.1765 H   0  0  0  0  0  0  0  0  0  0  0  0
    3.3118  -49.2221  -25.4220 C   0  0  0  0  0  0  0  0  0  0  0  0
    3.5901  -48.8218  -26.8669 C   0  0  0  0  0  0  0  0  0  0  0  0
    3.6991  -49.7438  -27.6713 O   0  0  0  0  0  0  0  0  0  0  0  0
    3.7100  -47.4609  -27.2284 N   0  0  0  0  0  0  0  0  0  0  0  0
    3.7005  -47.8467  -28.5423 H   0  0  0  0  0  0  0  0  0  0  0  0
    3.8261  -46.1946  -27.6110 C   0  0  0  0  0  0  0  0  0  0  0  0
    2.6554  -45.6483  -28.5243 C   0  0  0  0  0  0  0  0  0  0  0  0
    4.0698  -45.1148  -26.6057 C   0  0  0  0  0  0  0  0  0  0  0  0
    3.4046  -43.9177  -26.7745 O   0  0  0  0  0  0  0  0  0  0  0  0
    4.8438  -45.2378  -25.6164 O   0  0  0  0  0  0  0  0  0  0  0  0
    2.4075  -43.8531  -26.9751 H   0  0  0  0  0  0  0  0  0  0  0  0
    4.6199  -49.2091  -24.7024 C   0  0  0  0  0  0  0  0  0  0  0  0
    5.6182  -49.9323  -25.3732 O   0  0  0  0  0  0  0  0  0  0  0  0
    5.5198  -50.8901  -25.1286 H   0  0  0  0  0  0  0  0  0  0  0  0
    4.4958  -49.5449  -23.2917 C   0  0  0  0  0  0  0  0  0  0  0  0
    5.3800  -50.5006  -22.7444 O   0  0  0  0  0  0  0  0  0  0  0  0
    3.6567  -49.0372  -22.5146 O   0  0  0  0  0  0  0  0  0  0  0  0
    5.4956  -51.3791  -23.2935 H   0  0  0  0  0  0  0  0  0  0  0  0
    0.3662  -52.0473  -25.8956 C   0  0  0  0  0  0  0  0  0  0  0  0
   -0.8794  -52.8084  -25.6744 C   0  0  0  0  0  0  0  0  0  0  0  0
   -0.7975  -53.9986  -25.2527 O   0  0  0  0  0  0  0  0  0  0  0  0
   -2.1720  -52.3054  -25.9085 N   0  0  0  0  0  0  0  0  0  0  0  0
   -2.4975  -51.3491  -25.7151 H   0  0  0  0  0  0  0  0  0  0  0  0
   -2.8960  -52.9615  -26.3244 H   0  0  0  0  0  0  0  0  0  0  0  0
    0.8030  -51.9857  -27.3589 C   0  0  0  0  0  0  0  0  0  0  0  0
    0.3560  -53.0826  -28.2311 C   0  0  0  0  0  0  0  0  0  0  0  0
    1.6130  -53.8923  -28.6055 C   0  0  0  0  0  0  0  0  0  0  0  0
   -0.3686  -52.8007  -29.4716 C   0  0  0  0  0  0  0  0  0  0  0  0
    0.7096  -52.5601  -21.2087 C   0  0  0  0  0  0  0  0  0  0  0  0
    2.8390  -51.5758  -19.9410 C   0  0  0  0  0  0  0  0  0  0  0  0
    3.6946  -51.8697  -20.7436 O   0  0  0  0  0  0  0  0  0  0  0  0
    1.4781  -51.9328  -20.2322 N   0  0  0  0  0  0  0  0  0  0  0  0
    0.8494  -51.6457  -19.2956 H   0  0  0  0  0  0  0  0  0  0  0  0
    3.0363  -50.8727  -18.6393 C   0  0  0  0  0  0  0  0  0  0  0  0
    1.9626  -50.5936  -17.7433 C   0  0  0  0  0  0  0  0  0  0  0  0
    1.0656  -49.6140  -18.3370 O   0  0  0  0  0  0  0  0  0  0  0  0
    1.3267  -49.4594  -19.2538 H   0  0  0  0  0  0  0  0  0  0  0  0
    1.9106  -50.4175  -16.3122 C   0  0  0  0  0  0  0  0  0  0  0  0
   -0.2243  -51.0486  -15.2160 C   0  0  0  0  0  0  0  0  0  0  0  0
    0.1974  -52.2822  -15.2808 O   0  0  0  0  0  0  0  0  0  0  0  0
    0.6039  -50.0867  -15.7225 N   0  0  0  0  0  0  0  0  0  0  0  0
    0.3669  -49.0697  -15.6975 H   0  0  0  0  0  0  0  0  0  0  0  0
   -1.5786  -51.0041  -14.5655 C   0  0  0  0  0  0  0  0  0  0  0  0
   -1.3963  -47.3962  -13.5549 C   0  0  0  0  0  0  0  0  0  0  0  0
   -2.3029  -48.6132  -13.3946 C   0  0  0  0  0  0  0  0  0  0  0  0
   -3.2997  -48.4266  -12.7336 O   0  0  0  0  0  0  0  0  0  0  0  0
   -1.8317  -49.7553  -14.0338 N   0  0  0  0  0  0  0  0  0  0  0  0
   -2.9232  -50.3577  -13.3989 H   0  0  0  0  0  0  0  0  0  0  0  0
   -2.5187  -51.4438  -15.7053 C   0  0  0  0  0  0  0  0  0  0  0  0
   -3.8811  -51.8494  -15.2785 C   0  0  0  0  0  0  0  0  0  0  0  0
   -4.5580  -52.8900  -16.1179 C   0  0  0  0  0  0  0  0  0  0  0  0
   -3.8137  -52.3729  -13.8496 C   0  0  0  0  0  0  0  0  0  0  0  0
    3.0224  -49.7135  -15.6731 C   0  0  0  0  0  0  0  0  0  0  0  0
    2.8095  -48.1789  -15.6756 C   0  0  0  0  0  0  0  0  0  0  0  0
    2.8724  -47.5777  -14.3133 C   0  0  0  0  0  0  0  0  0  0  0  0
    4.0316  -47.6364  -16.4458 C   0  0  0  0  0  0  0  0  0  0  0  0
   -0.6647  -52.8019  -20.7308 C   0  0  0  0  0  0  0  0  0  0  0  0
   -1.3435  -54.0525  -21.1807 C   0  0  0  0  0  0  0  0  0  0  0  0
   -0.6049  -52.9183  -19.1886 C   0  0  0  0  0  0  0  0  0  0  0  0
 53 54  1  0  0  0
 54 55  2  0  0  0
 54 56  1  0  0  0
 56 52  1  0  0  0
 52 58  1  0  0  0
 58 59  1  0  0  0
 59 60  1  0  0  0
 59 61  1  0  0  0
 52 48  1  0  0  0
 48 49  2  0  0  0
 48 50  1  0  0  0
 50 47  1  0  0  0
 47 44  1  0  0  0
 44 45  1  0  0  0
 44 43  1  0  0  0
 43 39  1  0  0  0
 39 40  2  0  0  0
 39 41  1  0  0  0
 41 38  1  0  0  0
 38 66  1  0  0  0
 66 67  1  0  0  0
 66 68  1  0  0  0
 38  1  1  0  0  0
  1  2  2  0  0  0
  1  3  1  0  0  0
  3  5  1  0  0  0
  5 28  1  0  0  0
 28 34  1  0  0  0
 34 35  1  0  0  0
 35 36  1  0  0  0
 35 37  1  0  0  0
 28 29  1  0  0  0
 29 30  2  0  0  0
 29 31  1  0  0  0
  5  6  1  0  0  0
  6  7  1  0  0  0
  7 10  1  0  0  0
 10 11  1  0  0  0
 11 12  2  0  0  0
 11 13  1  0  0  0
 13 15  1  0  0  0
 15 16  1  0  0  0
 15 17  1  0  0  0
 17 18  1  0  0  0
 17 19  2  0  0  0
 10 21  1  0  0  0
 21 22  1  0  0  0
 21 24  1  0  0  0
 24 25  1  0  0  0
 24 26  2  0  0  0
  6  8  2  0  0  0
 47 62  1  0  0  0
 62 63  1  0  0  0
 63 64  1  0  0  0
 63 65  1  0  0  0
 56 57  1  0  0  0
 50 51  1  0  0  0
 45 46  1  0  0  0
 41 42  1  0  0  0
  3  4  1  0  0  0
 31 32  1  0  0  0
 31 33  1  0  0  0
  7  9  1  0  0  0
 13 14  1  0  0  0
 18 20  1  0  0  0
 22 23  1  0  0  0
 25 27  1  0  0  0
M  END
> <minimizedAffinity>
-7.05261

> <CNNscore>
0.0300729349

> <CNNaffinity>
6.1260490417

> <CNN_VS>
0.1842282712

> <CNNaffinity_variance>
1.0623404980

$$$$
[H]c1nc(N([H])c2c([H])c(N3C([H])([H])C([H])([H])N(C([H])([H])[H])C([H])([H])C3([H])[H])c([H])c(C([H])(F)F)c2[H])n2c([H])c(-c3c([H])c([H])c([H])c(F)c3[H])c([H])c2n1


 34 38  0  0  0  0  0  0  0  0999 V2000
   -0.1838  -50.7184  -21.2869 N   0  0  0  0  0  0  0  0  0  0  0  0
   -0.7432  -50.0478  -21.9335 H   0  0  0  0  0  0  0  0  0  0  0  0
   -0.5264  -52.0566  -21.3890 C   0  0  0  0  0  0  0  0  0  0  0  0
   -0.8742  -52.8157  -20.3643 N   0  0  0  0  0  0  0  0  0  0  0  0
   -1.2118  -54.1133  -20.4350 C   0  0  0  0  0  0  0  0  0  0  0  0
   -1.2015  -54.7074  -21.6369 N   0  0  0  0  0  0  0  0  0  0  0  0
   -0.8543  -53.9787  -22.7151 C   0  0  0  0  0  0  0  0  0  0  0  0
   -0.7738  -54.3707  -24.0342 C   0  0  0  0  0  0  0  0  0  0  0  0
   -0.3773  -53.2672  -24.7511 C   0  0  0  0  0  0  0  0  0  0  0  0
   -0.2340  -52.2492  -23.8318 C   0  0  0  0  0  0  0  0  0  0  0  0
   -0.5229  -52.6817  -22.6021 N   0  0  0  0  0  0  0  0  0  0  0  0
   -0.1479  -53.1740  -26.2052 C   0  0  0  0  0  0  0  0  0  0  0  0
    1.0594  -53.5843  -26.7283 C   0  0  0  0  0  0  0  0  0  0  0  0
    1.2913  -53.5019  -28.1031 C   0  0  0  0  0  0  0  0  0  0  0  0
    0.3248  -53.0131  -28.9528 C   0  0  0  0  0  0  0  0  0  0  0  0
   -0.8869  -52.6004  -28.4359 C   0  0  0  0  0  0  0  0  0  0  0  0
   -1.8274  -52.1219  -29.2828 F   0  0  0  0  0  0  0  0  0  0  0  0
   -1.0940  -52.6908  -27.0738 C   0  0  0  0  0  0  0  0  0  0  0  0
    1.9870  -49.6648  -18.4140 C   0  0  0  0  0  0  0  0  0  0  0  0
    1.0454  -50.3344  -19.1708 C   0  0  0  0  0  0  0  0  0  0  0  0
    0.7725  -50.0769  -20.4909 C   0  0  0  0  0  0  0  0  0  0  0  0
    1.5484  -49.0420  -21.0466 C   0  0  0  0  0  0  0  0  0  0  0  0
    2.4944  -48.3474  -20.3396 C   0  0  0  0  0  0  0  0  0  0  0  0
    2.7082  -48.6674  -19.0165 C   0  0  0  0  0  0  0  0  0  0  0  0
    3.2491  -49.4809  -13.4917 C   0  0  0  0  0  0  0  0  0  0  0  0
    2.7497  -50.4835  -14.3797 N   0  0  0  0  0  0  0  0  0  0  0  0
    1.4184  -50.2885  -14.8229 C   0  0  0  0  0  0  0  0  0  0  0  0
    1.3436  -49.4271  -16.0635 C   0  0  0  0  0  0  0  0  0  0  0  0
    2.2245  -49.9782  -17.0617 N   0  0  0  0  0  0  0  0  0  0  0  0
    3.3454  -50.8349  -16.7507 C   0  0  0  0  0  0  0  0  0  0  0  0
    3.6658  -50.9936  -15.3202 C   0  0  0  0  0  0  0  0  0  0  0  0
    3.2856  -47.2571  -20.9905 C   0  0  0  0  0  0  0  0  0  0  0  0
    3.3929  -46.1887  -20.1066 F   0  0  0  0  0  0  0  0  0  0  0  0
    2.6000  -46.8350  -22.1013 F   0  0  0  0  0  0  0  0  0  0  0  0
 25 26  1  0  0  0
 26 27  1  0  0  0
 27 28  1  0  0  0
 28 29  1  0  0  0
 29 30  1  0  0  0
 30 31  1  0  0  0
 29 19  1  0  0  0
 19 20  2  0  0  0
 20 21  1  0  0  0
 21  1  1  0  0  0
  1  3  1  0  0  0
  3  4  2  0  0  0
  4  5  1  0  0  0
  5  6  2  0  0  0
  6  7  1  0  0  0
  7  8  2  0  0  0
  8  9  1  0  0  0
  9 10  2  0  0  0
 10 11  1  0  0  0
  9 12  1  0  0  0
 12 13  2  0  0  0
 13 14  1  0  0  0
 14 15  2  0  0  0
 15 16  1  0  0  0
 16 17  1  0  0  0
 16 18  2  0  0  0
 21 22  2  0  0  0
 22 23  1  0  0  0
 23 24  2  0  0  0
 23 32  1  0  0  0
 32 33  1  0  0  0
 32 34  1  0  0  0
 31 26  1  0  0  0
 24 19  1  0  0  0
 11  3  1  0  0  0
 18 12  1  0  0  0
 11  7  1  0  0  0
  1  2  1  0  0  0
M  END
> <minimizedAffinity>
-8.70201

> <CNNscore>
0.7766292691

> <CNNaffinity>
7.2199974060

> <CNN_VS>
5.6072611809

> <CNNaffinity_variance>
0.0873442143

$$$$
[H]c1nc(N([H])c2c([H])c(N3C([H])([H])C([H])([H])N(C([H])([H])[H])C([H])([H])C3([H])[H])c([H])c(C([H])(F)F)c2[H])n2c([H])c(-c3c([H])c([H])c([H])c(F)c3[H])c([H])c2n1


 34 38  0  0  0  0  0  0  0  0999 V2000
   -0.0616  -53.4333  -18.9577 N   0  0  0  0  0  0  0  0  0  0  0  0
    0.7433  -54.0710  -18.6027 H   0  0  0  0  0  0  0  0  0  0  0  0
   -0.3504  -53.5464  -20.3078 C   0  0  0  0  0  0  0  0  0  0  0  0
   -1.0929  -54.5063  -20.8317 N   0  0  0  0  0  0  0  0  0  0  0  0
   -1.3893  -54.6388  -22.1346 C   0  0  0  0  0  0  0  0  0  0  0  0
   -0.9008  -53.7313  -22.9923 N   0  0  0  0  0  0  0  0  0  0  0  0
   -0.1376  -52.7317  -22.5104 C   0  0  0  0  0  0  0  0  0  0  0  0
    0.4651  -51.6975  -23.1939 C   0  0  0  0  0  0  0  0  0  0  0  0
    1.1318  -50.9416  -22.2595 C   0  0  0  0  0  0  0  0  0  0  0  0
    0.9035  -51.5527  -21.0444 C   0  0  0  0  0  0  0  0  0  0  0  0
    0.1360  -52.6343  -21.1987 N   0  0  0  0  0  0  0  0  0  0  0  0
    1.9316  -49.7242  -22.4919 C   0  0  0  0  0  0  0  0  0  0  0  0
    1.8272  -48.6670  -21.6138 C   0  0  0  0  0  0  0  0  0  0  0  0
    2.5780  -47.5077  -21.8208 C   0  0  0  0  0  0  0  0  0  0  0  0
    3.4289  -47.4021  -22.8978 C   0  0  0  0  0  0  0  0  0  0  0  0
    3.5386  -48.4570  -23.7815 C   0  0  0  0  0  0  0  0  0  0  0  0
    4.3786  -48.3391  -24.8356 F   0  0  0  0  0  0  0  0  0  0  0  0
    2.7868  -49.5931  -23.5571 C   0  0  0  0  0  0  0  0  0  0  0  0
   -0.6438  -50.8324  -16.3172 C   0  0  0  0  0  0  0  0  0  0  0  0
   -0.0451  -51.5847  -17.3089 C   0  0  0  0  0  0  0  0  0  0  0  0
   -0.6384  -52.6355  -17.9624 C   0  0  0  0  0  0  0  0  0  0  0  0
   -1.9528  -52.9076  -17.5382 C   0  0  0  0  0  0  0  0  0  0  0  0
   -2.5914  -52.1919  -16.5597 C   0  0  0  0  0  0  0  0  0  0  0  0
   -1.9256  -51.1503  -15.9513 C   0  0  0  0  0  0  0  0  0  0  0  0
    0.9478  -46.2218  -14.8802 C   0  0  0  0  0  0  0  0  0  0  0  0
    1.2667  -47.5683  -14.5218 N   0  0  0  0  0  0  0  0  0  0  0  0
    0.2492  -48.2643  -13.8239 C   0  0  0  0  0  0  0  0  0  0  0  0
   -0.7258  -48.9478  -14.7560 C   0  0  0  0  0  0  0  0  0  0  0  0
    0.0168  -49.7612  -15.6851 N   0  0  0  0  0  0  0  0  0  0  0  0
    1.4065  -49.5354  -16.0088 C   0  0  0  0  0  0  0  0  0  0  0  0
    2.0093  -48.3040  -15.4659 C   0  0  0  0  0  0  0  0  0  0  0  0
   -3.9907  -52.5333  -16.1548 C   0  0  0  0  0  0  0  0  0  0  0  0
   -4.2133  -53.8844  -16.3975 F   0  0  0  0  0  0  0  0  0  0  0  0
   -4.8523  -51.8039  -16.9344 F   0  0  0  0  0  0  0  0  0  0  0  0
 25 26  1  0  0  0
 26 27  1  0  0  0
 27 28  1  0  0  0
 28 29  1  0  0  0
 29 30  1  0  0  0
 30 31  1  0  0  0
 29 19  1  0  0  0
 19 20  2  0  0  0
 20 21  1  0  0  0
 21  1  1  0  0  0
  1  3  1  0  0  0
  3  4  2  0  0  0
  4  5  1  0  0  0
  5  6  2  0  0  0
  6  7  1  0  0  0
  7  8  2  0  0  0
  8  9  1  0  0  0
  9 10  2  0  0  0
 10 11  1  0  0  0
  9 12  1  0  0  0
 12 13  2  0  0  0
 13 14  1  0  0  0
 14 15  2  0  0  0
 15 16  1  0  0  0
 16 17  1  0  0  0
 16 18  2  0  0  0
 21 22  2  0  0  0
 22 23  1  0  0  0
 23 24  2  0  0  0
 23 32  1  0  0  0
 32 33  1  0  0  0
 32 34  1  0  0  0
 31 26  1  0  0  0
 24 19  1  0  0  0
 11  3  1  0  0  0
 18 12  1  0  0  0
 11  7  1  0  0  0
  1  2  1  0  0  0
M  END
> <minimizedAffinity>
-8.12118

> <CNNscore>
0.7236264348

> <CNNaffinity>
7.0629186630

> <CNN_VS>
5.1109147072

> <CNNaffinity_variance>
0.1597529799

$$$$
[H]c1nc(N([H])c2c([H])c(N3C([H])([H])C([H])([H])N(C([H])([H])[H])C([H])([H])C3([H])[H])c([H])c(C([H])(F)F)c2[H])n2c([H])c(-c3c([H])c([H])c([H])c(F)c3[H])c([H])c2n1


 34 38  0  0  0  0  0  0  0  0999 V2000
   -0.1952  -50.7469  -21.4239 N   0  0  0  0  0  0  0  0  0  0  0  0
   -0.7317  -50.0878  -22.1009 H   0  0  0  0  0  0  0  0  0  0  0  0
   -0.5331  -52.0871  -21.5159 C   0  0  0  0  0  0  0  0  0  0  0  0
   -0.8573  -52.8451  -20.4826 N   0  0  0  0  0  0  0  0  0  0  0  0
   -1.1898  -54.1445  -20.5434 C   0  0  0  0  0  0  0  0  0  0  0  0
   -1.1999  -54.7417  -21.7438 N   0  0  0  0  0  0  0  0  0  0  0  0
   -0.8773  -54.0143  -22.8304 C   0  0  0  0  0  0  0  0  0  0  0  0
   -0.8204  -54.4095  -24.1497 C   0  0  0  0  0  0  0  0  0  0  0  0
   -0.4433  -53.3059  -24.8770 C   0  0  0  0  0  0  0  0  0  0  0  0
   -0.2872  -52.2848  -23.9633 C   0  0  0  0  0  0  0  0  0  0  0  0
   -0.5501  -52.7154  -22.7271 N   0  0  0  0  0  0  0  0  0  0  0  0
   -0.2425  -53.2155  -26.3355 C   0  0  0  0  0  0  0  0  0  0  0  0
   -1.1737  -52.5555  -27.1080 C   0  0  0  0  0  0  0  0  0  0  0  0
   -0.9973  -52.4618  -28.4904 C   0  0  0  0  0  0  0  0  0  0  0  0
    0.1019  -53.0231  -29.1001 C   0  0  0  0  0  0  0  0  0  0  0  0
    1.0387  -53.6857  -28.3327 C   0  0  0  0  0  0  0  0  0  0  0  0
    2.1139  -54.2327  -28.9456 F   0  0  0  0  0  0  0  0  0  0  0  0
    0.8438  -53.7660  -26.9682 C   0  0  0  0  0  0  0  0  0  0  0  0
    1.8760  -49.6474  -18.4952 C   0  0  0  0  0  0  0  0  0  0  0  0
    0.9624  -50.3307  -19.2738 C   0  0  0  0  0  0  0  0  0  0  0  0
    0.7320  -50.0912  -20.6053 C   0  0  0  0  0  0  0  0  0  0  0  0
    1.5217  -49.0602  -21.1486 C   0  0  0  0  0  0  0  0  0  0  0  0
    2.4413  -48.3526  -20.4199 C   0  0  0  0  0  0  0  0  0  0  0  0
    2.6127  -48.6547  -19.0865 C   0  0  0  0  0  0  0  0  0  0  0  0
    2.1855  -51.9680  -13.9813 C   0  0  0  0  0  0  0  0  0  0  0  0
    2.4022  -50.6394  -14.4620 N   0  0  0  0  0  0  0  0  0  0  0  0
    3.5299  -50.4787  -15.3042 C   0  0  0  0  0  0  0  0  0  0  0  0
    3.2072  -50.7444  -16.7574 C   0  0  0  0  0  0  0  0  0  0  0  0
    2.0702  -49.9425  -17.1319 N   0  0  0  0  0  0  0  0  0  0  0  0
    1.1118  -49.4254  -16.1827 C   0  0  0  0  0  0  0  0  0  0  0  0
    1.2488  -49.9022  -14.7941 C   0  0  0  0  0  0  0  0  0  0  0  0
    3.2492  -47.2673  -21.0585 C   0  0  0  0  0  0  0  0  0  0  0  0
    3.3392  -46.1947  -20.1779 F   0  0  0  0  0  0  0  0  0  0  0  0
    2.5895  -46.8494  -22.1864 F   0  0  0  0  0  0  0  0  0  0  0  0
 25 26  1  0  0  0
 26 27  1  0  0  0
 27 28  1  0  0  0
 28 29  1  0  0  0
 29 30  1  0  0  0
 30 31  1  0  0  0
 29 19  1  0  0  0
 19 20  2  0  0  0
 20 21  1  0  0  0
 21  1  1  0  0  0
  1  3  1  0  0  0
  3  4  2  0  0  0
  4  5  1  0  0  0
  5  6  2  0  0  0
  6  7  1  0  0  0
  7  8  2  0  0  0
  8  9  1  0  0  0
  9 10  2  0  0  0
 10 11  1  0  0  0
  9 12  1  0  0  0
 12 13  2  0  0  0
 13 14  1  0  0  0
 14 15  2  0  0  0
 15 16  1  0  0  0
 16 17  1  0  0  0
 16 18  2  0  0  0
 21 22  2  0  0  0
 22 23  1  0  0  0
 23 24  2  0  0  0
 23 32  1  0  0  0
 32 33  1  0  0  0
 32 34  1  0  0  0
 31 26  1  0  0  0
 24 19  1  0  0  0
 11  3  1  0  0  0
 18 12  1  0  0  0
 11  7  1  0  0  0
  1  2  1  0  0  0
M  END
> <minimizedAffinity>
-8.99547

> <CNNscore>
0.7059923410

> <CNNaffinity>
7.1759352684

> <CNN_VS>
5.0661554337

> <CNNaffinity_variance>
0.0930868313

$$$$
[H]c1nc(N([H])c2c([H])c(N3C([H])([H])C([H])([H])N(C([H])([H])[H])C([H])([H])C3([H])[H])c([H])c(C([H])(F)F)c2[H])n2c([H])c(-c3c([H])c([H])c([H])c(F)c3[H])c([H])c2n1


 34 38  0  0  0  0  0  0  0  0999 V2000
    0.4188  -50.7507  -21.0287 N   0  0  0  0  0  0  0  0  0  0  0  0
   -0.2522  -49.9206  -21.2316 H   0  0  0  0  0  0  0  0  0  0  0  0
   -0.1462  -52.0091  -21.1557 C   0  0  0  0  0  0  0  0  0  0  0  0
   -0.6096  -52.7220  -20.1436 N   0  0  0  0  0  0  0  0  0  0  0  0
   -1.1625  -53.9418  -20.2385 C   0  0  0  0  0  0  0  0  0  0  0  0
   -1.2622  -54.5010  -21.4530 N   0  0  0  0  0  0  0  0  0  0  0  0
   -0.8050  -53.8167  -22.5191 C   0  0  0  0  0  0  0  0  0  0  0  0
   -0.8021  -54.1859  -23.8471 C   0  0  0  0  0  0  0  0  0  0  0  0
   -0.2301  -53.1490  -24.5446 C   0  0  0  0  0  0  0  0  0  0  0  0
    0.0906  -52.1915  -23.6052 C   0  0  0  0  0  0  0  0  0  0  0  0
   -0.2579  -52.5974  -22.3819 N   0  0  0  0  0  0  0  0  0  0  0  0
    0.0006  -53.0622  -25.9988 C   0  0  0  0  0  0  0  0  0  0  0  0
    1.2505  -53.3475  -26.5048 C   0  0  0  0  0  0  0  0  0  0  0  0
    1.4842  -53.2695  -27.8796 C   0  0  0  0  0  0  0  0  0  0  0  0
    0.4772  -52.9090  -28.7462 C   0  0  0  0  0  0  0  0  0  0  0  0
   -0.7772  -52.6217  -28.2466 C   0  0  0  0  0  0  0  0  0  0  0  0
   -1.7572  -52.2685  -29.1101 F   0  0  0  0  0  0  0  0  0  0  0  0
   -0.9853  -52.7053  -26.8842 C   0  0  0  0  0  0  0  0  0  0  0  0
    4.1182  -50.1272  -21.0732 C   0  0  0  0  0  0  0  0  0  0  0  0
    2.8468  -50.5084  -21.4556 C   0  0  0  0  0  0  0  0  0  0  0  0
    1.7195  -50.3621  -20.6867 C   0  0  0  0  0  0  0  0  0  0  0  0
    1.9537  -49.7726  -19.4300 C   0  0  0  0  0  0  0  0  0  0  0  0
    3.1943  -49.3772  -19.0034 C   0  0  0  0  0  0  0  0  0  0  0  0
    4.2767  -49.5593  -19.8362 C   0  0  0  0  0  0  0  0  0  0  0  0
    7.7574  -49.5256  -24.5732 C   0  0  0  0  0  0  0  0  0  0  0  0
    7.4106  -50.5387  -23.6263 N   0  0  0  0  0  0  0  0  0  0  0  0
    7.6079  -50.1883  -22.2679 C   0  0  0  0  0  0  0  0  0  0  0  0
    6.4057  -49.4912  -21.6715 C   0  0  0  0  0  0  0  0  0  0  0  0
    5.2376  -50.3004  -21.9100 N   0  0  0  0  0  0  0  0  0  0  0  0
    5.1491  -51.2810  -22.9672 C   0  0  0  0  0  0  0  0  0  0  0  0
    6.2684  -51.3062  -23.9268 C   0  0  0  0  0  0  0  0  0  0  0  0
    3.3752  -48.7565  -17.6540 C   0  0  0  0  0  0  0  0  0  0  0  0
    2.7298  -49.5431  -16.7059 F   0  0  0  0  0  0  0  0  0  0  0  0
    2.7825  -47.5194  -17.6686 F   0  0  0  0  0  0  0  0  0  0  0  0
 25 26  1  0  0  0
 26 27  1  0  0  0
 27 28  1  0  0  0
 28 29  1  0  0  0
 29 30  1  0  0  0
 30 31  1  0  0  0
 29 19  1  0  0  0
 19 20  2  0  0  0
 20 21  1  0  0  0
 21  1  1  0  0  0
  1  3  1  0  0  0
  3  4  2  0  0  0
  4  5  1  0  0  0
  5  6  2  0  0  0
  6  7  1  0  0  0
  7  8  2  0  0  0
  8  9  1  0  0  0
  9 10  2  0  0  0
 10 11  1  0  0  0
  9 12  1  0  0  0
 12 13  2  0  0  0
 13 14  1  0  0  0
 14 15  2  0  0  0
 15 16  1  0  0  0
 16 17  1  0  0  0
 16 18  2  0  0  0
 21 22  2  0  0  0
 22 23  1  0  0  0
 23 24  2  0  0  0
 23 32  1  0  0  0
 32 33  1  0  0  0
 32 34  1  0  0  0
 31 26  1  0  0  0
 24 19  1  0  0  0
 11  3  1  0  0  0
 18 12  1  0  0  0
 11  7  1  0  0  0
  1  2  1  0  0  0
M  END
> <minimizedAffinity>
-8.58091

> <CNNscore>
0.7033852935

> <CNNaffinity>
7.4240198135

> <CNN_VS>
5.2219462395

> <CNNaffinity_variance>
0.2825072706

$$$$
[H]c1nc(N([H])c2c([H])c(N3C([H])([H])C([H])([H])N(C([H])([H])[H])C([H])([H])C3([H])[H])c([H])c(C([H])(F)F)c2[H])n2c([H])c(-c3c([H])c([H])c([H])c(F)c3[H])c([H])c2n1


 34 38  0  0  0  0  0  0  0  0999 V2000
    0.5620  -51.0938  -21.0890 N   0  0  0  0  0  0  0  0  0  0  0  0
    0.1699  -50.2442  -21.6411 H   0  0  0  0  0  0  0  0  0  0  0  0
   -0.1272  -52.2819  -21.2693 C   0  0  0  0  0  0  0  0  0  0  0  0
   -0.6752  -52.9800  -20.2897 N   0  0  0  0  0  0  0  0  0  0  0  0
   -1.3487  -54.1322  -20.4363 C   0  0  0  0  0  0  0  0  0  0  0  0
   -1.4883  -54.6332  -21.6722 N   0  0  0  0  0  0  0  0  0  0  0  0
   -0.9486  -53.9609  -22.7069 C   0  0  0  0  0  0  0  0  0  0  0  0
   -0.9650  -54.2795  -24.0479 C   0  0  0  0  0  0  0  0  0  0  0  0
   -0.2801  -53.2820  -24.6997 C   0  0  0  0  0  0  0  0  0  0  0  0
    0.1238  -52.3977  -23.7215 C   0  0  0  0  0  0  0  0  0  0  0  0
   -0.2814  -52.8102  -22.5180 N   0  0  0  0  0  0  0  0  0  0  0  0
   -0.0215  -53.1661  -26.1472 C   0  0  0  0  0  0  0  0  0  0  0  0
    1.2227  -53.4934  -26.6415 C   0  0  0  0  0  0  0  0  0  0  0  0
    1.4826  -53.3886  -28.0098 C   0  0  0  0  0  0  0  0  0  0  0  0
    0.5072  -52.9597  -28.8815 C   0  0  0  0  0  0  0  0  0  0  0  0
   -0.7413  -52.6302  -28.3936 C   0  0  0  0  0  0  0  0  0  0  0  0
   -1.6901  -52.2100  -29.2619 F   0  0  0  0  0  0  0  0  0  0  0  0
   -0.9757  -52.7414  -27.0374 C   0  0  0  0  0  0  0  0  0  0  0  0
    2.8625  -50.3164  -18.2291 C   0  0  0  0  0  0  0  0  0  0  0  0
    1.7283  -50.6249  -18.9545 C   0  0  0  0  0  0  0  0  0  0  0  0
    1.6908  -50.7993  -20.3152 C   0  0  0  0  0  0  0  0  0  0  0  0
    2.9368  -50.6369  -20.9499 C   0  0  0  0  0  0  0  0  0  0  0  0
    4.0904  -50.3312  -20.2766 C   0  0  0  0  0  0  0  0  0  0  0  0
    4.0436  -50.1719  -18.9088 C   0  0  0  0  0  0  0  0  0  0  0  0
    3.5272  -48.6157  -13.4834 C   0  0  0  0  0  0  0  0  0  0  0  0
    2.8739  -49.7369  -14.0828 N   0  0  0  0  0  0  0  0  0  0  0  0
    1.7154  -49.4280  -14.8373 C   0  0  0  0  0  0  0  0  0  0  0  0
    2.0367  -49.0917  -16.2762 C   0  0  0  0  0  0  0  0  0  0  0  0
    2.8380  -50.1533  -16.8305 N   0  0  0  0  0  0  0  0  0  0  0  0
    3.6244  -51.0612  -16.0278 C   0  0  0  0  0  0  0  0  0  0  0  0
    3.7133  -50.7481  -14.5896 C   0  0  0  0  0  0  0  0  0  0  0  0
    5.3836  -50.1717  -21.0120 C   0  0  0  0  0  0  0  0  0  0  0  0
    5.2048  -49.2585  -22.0455 F   0  0  0  0  0  0  0  0  0  0  0  0
    5.7188  -51.3851  -21.5572 F   0  0  0  0  0  0  0  0  0  0  0  0
 25 26  1  0  0  0
 26 27  1  0  0  0
 27 28  1  0  0  0
 28 29  1  0  0  0
 29 30  1  0  0  0
 30 31  1  0  0  0
 29 19  1  0  0  0
 19 20  2  0  0  0
 20 21  1  0  0  0
 21  1  1  0  0  0
  1  3  1  0  0  0
  3  4  2  0  0  0
  4  5  1  0  0  0
  5  6  2  0  0  0
  6  7  1  0  0  0
  7  8  2  0  0  0
  8  9  1  0  0  0
  9 10  2  0  0  0
 10 11  1  0  0  0
  9 12  1  0  0  0
 12 13  2  0  0  0
 13 14  1  0  0  0
 14 15  2  0  0  0
 15 16  1  0  0  0
 16 17  1  0  0  0
 16 18  2  0  0  0
 21 22  2  0  0  0
 22 23  1  0  0  0
 23 24  2  0  0  0
 23 32  1  0  0  0
 32 33  1  0  0  0
 32 34  1  0  0  0
 31 26  1  0  0  0
 24 19  1  0  0  0
 11  3  1  0  0  0
 18 12  1  0  0  0
 11  7  1  0  0  0
  1  2  1  0  0  0
M  END
> <minimizedAffinity>
-8.51767

> <CNNscore>
0.6680067182

> <CNNaffinity>
7.1442461014

> <CNN_VS>
4.7724041939

> <CNNaffinity_variance>
0.1954678595

$$$$
[H]c1nc(N([H])c2c([H])c(N3C([H])([H])C([H])([H])N(C([H])([H])[H])C([H])([H])C3([H])[H])c([H])c(C([H])(F)F)c2[H])n2c([H])c(-c3c([H])c([H])c([H])c(F)c3[H])c([H])c2n1


 34 38  0  0  0  0  0  0  0  0999 V2000
    0.1806  -53.7715  -19.6332 N   0  0  0  0  0  0  0  0  0  0  0  0
    0.9100  -54.4972  -19.2842 H   0  0  0  0  0  0  0  0  0  0  0  0
   -0.2113  -53.9188  -20.9536 C   0  0  0  0  0  0  0  0  0  0  0  0
   -1.1656  -54.7386  -21.3592 N   0  0  0  0  0  0  0  0  0  0  0  0
   -1.5658  -54.8999  -22.6307 C   0  0  0  0  0  0  0  0  0  0  0  0
   -0.9591  -54.1778  -23.5837 N   0  0  0  0  0  0  0  0  0  0  0  0
    0.0208  -53.3265  -23.2242 C   0  0  0  0  0  0  0  0  0  0  0  0
    0.7761  -52.4920  -24.0199 C   0  0  0  0  0  0  0  0  0  0  0  0
    1.6411  -51.8260  -23.1850 C   0  0  0  0  0  0  0  0  0  0  0  0
    1.3719  -52.2874  -21.9136 C   0  0  0  0  0  0  0  0  0  0  0  0
    0.3922  -53.1942  -21.9399 N   0  0  0  0  0  0  0  0  0  0  0  0
    2.6551  -50.8211  -23.5565 C   0  0  0  0  0  0  0  0  0  0  0  0
    3.7853  -50.6801  -22.7805 C   0  0  0  0  0  0  0  0  0  0  0  0
    4.7540  -49.7329  -23.1195 C   0  0  0  0  0  0  0  0  0  0  0  0
    4.5975  -48.9300  -24.2267 C   0  0  0  0  0  0  0  0  0  0  0  0
    3.4680  -49.0657  -25.0087 C   0  0  0  0  0  0  0  0  0  0  0  0
    3.3273  -48.2697  -26.0938 F   0  0  0  0  0  0  0  0  0  0  0  0
    2.5235  -50.0085  -24.6545 C   0  0  0  0  0  0  0  0  0  0  0  0
   -1.6876  -51.9627  -16.9287 C   0  0  0  0  0  0  0  0  0  0  0  0
   -1.3270  -52.9110  -17.8660 C   0  0  0  0  0  0  0  0  0  0  0  0
   -0.2104  -52.8432  -18.6608 C   0  0  0  0  0  0  0  0  0  0  0  0
    0.5769  -51.6956  -18.4490 C   0  0  0  0  0  0  0  0  0  0  0  0
    0.2636  -50.7264  -17.5326 C   0  0  0  0  0  0  0  0  0  0  0  0
   -0.8768  -50.8690  -16.7727 C   0  0  0  0  0  0  0  0  0  0  0  0
   -4.9690  -52.9270  -13.1659 C   0  0  0  0  0  0  0  0  0  0  0  0
   -5.0643  -52.4068  -14.4939 N   0  0  0  0  0  0  0  0  0  0  0  0
   -4.4916  -51.1250  -14.6825 C   0  0  0  0  0  0  0  0  0  0  0  0
   -3.0199  -51.1950  -15.0231 C   0  0  0  0  0  0  0  0  0  0  0  0
   -2.8464  -52.0905  -16.1386 N   0  0  0  0  0  0  0  0  0  0  0  0
   -3.7975  -53.1193  -16.4907 C   0  0  0  0  0  0  0  0  0  0  0  0
   -4.9028  -53.3369  -15.5393 C   0  0  0  0  0  0  0  0  0  0  0  0
    1.1439  -49.5294  -17.3568 C   0  0  0  0  0  0  0  0  0  0  0  0
    1.2181  -48.8432  -18.5641 F   0  0  0  0  0  0  0  0  0  0  0  0
    2.4016  -49.9673  -17.0277 F   0  0  0  0  0  0  0  0  0  0  0  0
 25 26  1  0  0  0
 26 27  1  0  0  0
 27 28  1  0  0  0
 28 29  1  0  0  0
 29 30  1  0  0  0
 30 31  1  0  0  0
 29 19  1  0  0  0
 19 20  2  0  0  0
 20 21  1  0  0  0
 21  1  1  0  0  0
  1  3  1  0  0  0
  3  4  2  0  0  0
  4  5  1  0  0  0
  5  6  2  0  0  0
  6  7  1  0  0  0
  7  8  2  0  0  0
  8  9  1  0  0  0
  9 10  2  0  0  0
 10 11  1  0  0  0
  9 12  1  0  0  0
 12 13  2  0  0  0
 13 14  1  0  0  0
 14 15  2  0  0  0
 15 16  1  0  0  0
 16 17  1  0  0  0
 16 18  2  0  0  0
 21 22  2  0  0  0
 22 23  1  0  0  0
 23 24  2  0  0  0
 23 32  1  0  0  0
 32 33  1  0  0  0
 32 34  1  0  0  0
 31 26  1  0  0  0
 24 19  1  0  0  0
 11  3  1  0  0  0
 18 12  1  0  0  0
 11  7  1  0  0  0
  1  2  1  0  0  0
M  END
> <minimizedAffinity>
-8.06559

> <CNNscore>
0.5924278498

> <CNNaffinity>
7.0020356178

> <CNN_VS>
4.1482009888

> <CNNaffinity_variance>
0.0957299322

$$$$
[H]c1nc(N([H])c2c([H])c(N3C([H])([H])C([H])([H])N(C([H])([H])[H])C([H])([H])C3([H])[H])c([H])c(C([H])(F)F)c2[H])n2c([H])c(-c3c([H])c([H])c([H])c(F)c3[H])c([H])c2n1


 34 38  0  0  0  0  0  0  0  0999 V2000
   -0.5381  -53.4740  -18.5061 N   0  0  0  0  0  0  0  0  0  0  0  0
   -0.1303  -54.3861  -18.0792 H   0  0  0  0  0  0  0  0  0  0  0  0
   -0.5088  -53.4069  -19.8893 C   0  0  0  0  0  0  0  0  0  0  0  0
   -1.4570  -53.8834  -20.6774 N   0  0  0  0  0  0  0  0  0  0  0  0
   -1.4544  -53.8306  -22.0191 C   0  0  0  0  0  0  0  0  0  0  0  0
   -0.4116  -53.2499  -22.6297 N   0  0  0  0  0  0  0  0  0  0  0  0
    0.5828  -52.7475  -21.8728 C   0  0  0  0  0  0  0  0  0  0  0  0
    1.7392  -52.1138  -22.2742 C   0  0  0  0  0  0  0  0  0  0  0  0
    2.4291  -51.7887  -21.1308 C   0  0  0  0  0  0  0  0  0  0  0  0
    1.6579  -52.2413  -20.0809 C   0  0  0  0  0  0  0  0  0  0  0  0
    0.5426  -52.8204  -20.5320 N   0  0  0  0  0  0  0  0  0  0  0  0
    3.7284  -51.0978  -21.0301 C   0  0  0  0  0  0  0  0  0  0  0  0
    4.6957  -51.3311  -21.9837 C   0  0  0  0  0  0  0  0  0  0  0  0
    5.9308  -50.6843  -21.9015 C   0  0  0  0  0  0  0  0  0  0  0  0
    6.2009  -49.8090  -20.8739 C   0  0  0  0  0  0  0  0  0  0  0  0
    5.2369  -49.5704  -19.9151 C   0  0  0  0  0  0  0  0  0  0  0  0
    5.5164  -48.7079  -18.9108 F   0  0  0  0  0  0  0  0  0  0  0  0
    4.0233  -50.2209  -20.0164 C   0  0  0  0  0  0  0  0  0  0  0  0
   -0.8187  -50.6449  -16.0578 C   0  0  0  0  0  0  0  0  0  0  0  0
   -0.3185  -51.5127  -17.0089 C   0  0  0  0  0  0  0  0  0  0  0  0
   -1.0131  -52.5624  -17.5557 C   0  0  0  0  0  0  0  0  0  0  0  0
   -2.3245  -52.7022  -17.0633 C   0  0  0  0  0  0  0  0  0  0  0  0
   -2.8677  -51.8689  -16.1210 C   0  0  0  0  0  0  0  0  0  0  0  0
   -2.1033  -50.8373  -15.6211 C   0  0  0  0  0  0  0  0  0  0  0  0
    0.8999  -46.0580  -14.6931 C   0  0  0  0  0  0  0  0  0  0  0  0
    1.3690  -47.4023  -14.5656 N   0  0  0  0  0  0  0  0  0  0  0  0
    0.6238  -48.2202  -13.6811 C   0  0  0  0  0  0  0  0  0  0  0  0
   -0.5425  -48.8970  -14.3655 C   0  0  0  0  0  0  0  0  0  0  0  0
   -0.0564  -49.5817  -15.5365 N   0  0  0  0  0  0  0  0  0  0  0  0
    1.1729  -49.2339  -16.2108 C   0  0  0  0  0  0  0  0  0  0  0  0
    1.8472  -48.0085  -15.7436 C   0  0  0  0  0  0  0  0  0  0  0  0
   -4.2695  -52.0728  -15.6393 C   0  0  0  0  0  0  0  0  0  0  0  0
   -4.7639  -53.2555  -16.1785 F   0  0  0  0  0  0  0  0  0  0  0  0
   -5.0359  -51.0318  -16.0986 F   0  0  0  0  0  0  0  0  0  0  0  0
 25 26  1  0  0  0
 26 27  1  0  0  0
 27 28  1  0  0  0
 28 29  1  0  0  0
 29 30  1  0  0  0
 30 31  1  0  0  0
 29 19  1  0  0  0
 19 20  2  0  0  0
 20 21  1  0  0  0
 21  1  1  0  0  0
  1  3  1  0  0  0
  3  4  2  0  0  0
  4  5  1  0  0  0
  5  6  2  0  0  0
  6  7  1  0  0  0
  7  8  2  0  0  0
  8  9  1  0  0  0
  9 10  2  0  0  0
 10 11  1  0  0  0
  9 12  1  0  0  0
 12 13  2  0  0  0
 13 14  1  0  0  0
 14 15  2  0  0  0
 15 16  1  0  0  0
 16 17  1  0  0  0
 16 18  2  0  0  0
 21 22  2  0  0  0
 22 23  1  0  0  0
 23 24  2  0  0  0
 23 32  1  0  0  0
 32 33  1  0  0  0
 32 34  1  0  0  0
 31 26  1  0  0  0
 24 19  1  0  0  0
 11  3  1  0  0  0
 18 12  1  0  0  0
 11  7  1  0  0  0
  1  2  1  0  0  0
M  END
> <minimizedAffinity>
-7.66589

> <CNNscore>
0.5704151988

> <CNNaffinity>
6.7953882217

> <CNN_VS>
3.8761928082

> <CNNaffinity_variance>
0.1698833108

$$$$
[H]c1nc(N([H])c2c([H])c(N3C([H])([H])C([H])([H])N(C([H])([H])[H])C([H])([H])C3([H])[H])c([H])c(C([H])(F)F)c2[H])n2c([H])c(-c3c([H])c([H])c([H])c(F)c3[H])c([H])c2n1


 34 38  0  0  0  0  0  0  0  0999 V2000
   -0.3088  -51.8748  -24.2269 N   0  0  0  0  0  0  0  0  0  0  0  0
   -0.9829  -51.0239  -24.1800 H   0  0  0  0  0  0  0  0  0  0  0  0
   -0.5745  -52.8871  -23.3195 C   0  0  0  0  0  0  0  0  0  0  0  0
   -0.9952  -54.0946  -23.6543 N   0  0  0  0  0  0  0  0  0  0  0  0
   -1.2587  -55.0935  -22.7966 C   0  0  0  0  0  0  0  0  0  0  0  0
   -1.0868  -54.8672  -21.4863 N   0  0  0  0  0  0  0  0  0  0  0  0
   -0.6593  -53.6528  -21.0908 C   0  0  0  0  0  0  0  0  0  0  0  0
   -0.4140  -53.1963  -19.8135 C   0  0  0  0  0  0  0  0  0  0  0  0
    0.0045  -51.8926  -19.9332 C   0  0  0  0  0  0  0  0  0  0  0  0
   -0.0050  -51.6138  -21.2838 C   0  0  0  0  0  0  0  0  0  0  0  0
   -0.4065  -52.6791  -21.9813 N   0  0  0  0  0  0  0  0  0  0  0  0
    0.3888  -50.9682  -18.8499 C   0  0  0  0  0  0  0  0  0  0  0  0
    1.2401  -49.9196  -19.1241 C   0  0  0  0  0  0  0  0  0  0  0  0
    1.6130  -49.0362  -18.1086 C   0  0  0  0  0  0  0  0  0  0  0  0
    1.1397  -49.1968  -16.8259 C   0  0  0  0  0  0  0  0  0  0  0  0
    0.2867  -50.2448  -16.5439 C   0  0  0  0  0  0  0  0  0  0  0  0
   -0.1703  -50.3905  -15.2787 F   0  0  0  0  0  0  0  0  0  0  0  0
   -0.0684  -51.1057  -17.5632 C   0  0  0  0  0  0  0  0  0  0  0  0
    2.6960  -50.7990  -26.1991 C   0  0  0  0  0  0  0  0  0  0  0  0
    1.7454  -50.8915  -25.2013 C   0  0  0  0  0  0  0  0  0  0  0  0
    0.6844  -51.7619  -25.2069 C   0  0  0  0  0  0  0  0  0  0  0  0
    0.6263  -52.5895  -26.3442 C   0  0  0  0  0  0  0  0  0  0  0  0
    1.5433  -52.5374  -27.3609 C   0  0  0  0  0  0  0  0  0  0  0  0
    2.5806  -51.6341  -27.2795 C   0  0  0  0  0  0  0  0  0  0  0  0
    7.0516  -48.2937  -26.9793 C   0  0  0  0  0  0  0  0  0  0  0  0
    5.9430  -48.1585  -26.0871 N   0  0  0  0  0  0  0  0  0  0  0  0
    4.7263  -47.7587  -26.6926 C   0  0  0  0  0  0  0  0  0  0  0  0
    3.9230  -48.9334  -27.2039 C   0  0  0  0  0  0  0  0  0  0  0  0
    3.7664  -49.8860  -26.1343 N   0  0  0  0  0  0  0  0  0  0  0  0
    4.6527  -49.9596  -24.9958 C   0  0  0  0  0  0  0  0  0  0  0  0
    5.8571  -49.1108  -25.0529 C   0  0  0  0  0  0  0  0  0  0  0  0
    1.4238  -53.4459  -28.5436 C   0  0  0  0  0  0  0  0  0  0  0  0
    0.5276  -52.8900  -29.4502 F   0  0  0  0  0  0  0  0  0  0  0  0
    0.9178  -54.6460  -28.1126 F   0  0  0  0  0  0  0  0  0  0  0  0
 25 26  1  0  0  0
 26 27  1  0  0  0
 27 28  1  0  0  0
 28 29  1  0  0  0
 29 30  1  0  0  0
 30 31  1  0  0  0
 29 19  1  0  0  0
 19 20  2  0  0  0
 20 21  1  0  0  0
 21  1  1  0  0  0
  1  3  1  0  0  0
  3  4  2  0  0  0
  4  5  1  0  0  0
  5  6  2  0  0  0
  6  7  1  0  0  0
  7  8  2  0  0  0
  8  9  1  0  0  0
  9 10  2  0  0  0
 10 11  1  0  0  0
  9 12  1  0  0  0
 12 13  2  0  0  0
 13 14  1  0  0  0
 14 15  2  0  0  0
 15 16  1  0  0  0
 16 17  1  0  0  0
 16 18  2  0  0  0
 21 22  2  0  0  0
 22 23  1  0  0  0
 23 24  2  0  0  0
 23 32  1  0  0  0
 32 33  1  0  0  0
 32 34  1  0  0  0
 31 26  1  0  0  0
 24 19  1  0  0  0
 11  3  1  0  0  0
 18 12  1  0  0  0
 11  7  1  0  0  0
  1  2  1  0  0  0
M  END
> <minimizedAffinity>
-8.51513

> <CNNscore>
0.5524758697

> <CNNaffinity>
7.2017989159

> <CNN_VS>
3.9788200855

> <CNNaffinity_variance>
0.1929737777

$$$$
[H]c1nc(N([H])c2c([H])c(N3C([H])([H])C([H])([H])N(C([H])([H])[H])C([H])([H])C3([H])[H])c([H])c(C([H])(F)F)c2[H])n2c([H])c(-c3c([H])c([H])c([H])c(F)c3[H])c([H])c2n1


 34 38  0  0  0  0  0  0  0  0999 V2000
   -0.2246  -50.5881  -21.4059 N   0  0  0  0  0  0  0  0  0  0  0  0
   -1.1084  -49.9609  -21.4839 H   0  0  0  0  0  0  0  0  0  0  0  0
   -0.4641  -51.9516  -21.4545 C   0  0  0  0  0  0  0  0  0  0  0  0
   -0.6805  -52.7072  -20.3918 N   0  0  0  0  0  0  0  0  0  0  0  0
   -0.9162  -54.0289  -20.4104 C   0  0  0  0  0  0  0  0  0  0  0  0
   -0.9381  -54.6532  -21.5968 N   0  0  0  0  0  0  0  0  0  0  0  0
   -0.7234  -53.9294  -22.7121 C   0  0  0  0  0  0  0  0  0  0  0  0
   -0.6994  -54.3501  -24.0245 C   0  0  0  0  0  0  0  0  0  0  0  0
   -0.4419  -53.2388  -24.7912 C   0  0  0  0  0  0  0  0  0  0  0  0
   -0.3203  -52.1877  -23.9067 C   0  0  0  0  0  0  0  0  0  0  0  0
   -0.4909  -52.6076  -22.6508 N   0  0  0  0  0  0  0  0  0  0  0  0
   -0.3180  -53.1680  -26.2593 C   0  0  0  0  0  0  0  0  0  0  0  0
   -1.2822  -52.5073  -26.9896 C   0  0  0  0  0  0  0  0  0  0  0  0
   -1.1786  -52.4320  -28.3803 C   0  0  0  0  0  0  0  0  0  0  0  0
   -0.1190  -53.0121  -29.0405 C   0  0  0  0  0  0  0  0  0  0  0  0
    0.8506  -53.6755  -28.3156 C   0  0  0  0  0  0  0  0  0  0  0  0
    1.8862  -54.2412  -28.9777 F   0  0  0  0  0  0  0  0  0  0  0  0
    0.7276  -53.7375  -26.9418 C   0  0  0  0  0  0  0  0  0  0  0  0
    2.6126  -48.5270  -20.0723 C   0  0  0  0  0  0  0  0  0  0  0  0
    1.4315  -49.2389  -20.1517 C   0  0  0  0  0  0  0  0  0  0  0  0
    0.9724  -49.8734  -21.2786 C   0  0  0  0  0  0  0  0  0  0  0  0
    1.8201  -49.7462  -22.3953 C   0  0  0  0  0  0  0  0  0  0  0  0
    3.0010  -49.0519  -22.3688 C   0  0  0  0  0  0  0  0  0  0  0  0
    3.3914  -48.4421  -21.1966 C   0  0  0  0  0  0  0  0  0  0  0  0
    5.3706  -46.4247  -16.3535 C   0  0  0  0  0  0  0  0  0  0  0  0
    3.9821  -46.6862  -16.5704 N   0  0  0  0  0  0  0  0  0  0  0  0
    3.3733  -45.9094  -17.5867 C   0  0  0  0  0  0  0  0  0  0  0  0
    3.5075  -46.5410  -18.9541 C   0  0  0  0  0  0  0  0  0  0  0  0
    3.0327  -47.8996  -18.8835 N   0  0  0  0  0  0  0  0  0  0  0  0
    2.9672  -48.6587  -17.6561 C   0  0  0  0  0  0  0  0  0  0  0  0
    3.5795  -48.0322  -16.4700 C   0  0  0  0  0  0  0  0  0  0  0  0
    3.8566  -48.9547  -23.5924 C   0  0  0  0  0  0  0  0  0  0  0  0
    4.7930  -47.9431  -23.4084 F   0  0  0  0  0  0  0  0  0  0  0  0
    3.0529  -48.6156  -24.6513 F   0  0  0  0  0  0  0  0  0  0  0  0
 25 26  1  0  0  0
 26 27  1  0  0  0
 27 28  1  0  0  0
 28 29  1  0  0  0
 29 30  1  0  0  0
 30 31  1  0  0  0
 29 19  1  0  0  0
 19 20  2  0  0  0
 20 21  1  0  0  0
 21  1  1  0  0  0
  1  3  1  0  0  0
  3  4  2  0  0  0
  4  5  1  0  0  0
  5  6  2  0  0  0
  6  7  1  0  0  0
  7  8  2  0  0  0
  8  9  1  0  0  0
  9 10  2  0  0  0
 10 11  1  0  0  0
  9 12  1  0  0  0
 12 13  2  0  0  0
 13 14  1  0  0  0
 14 15  2  0  0  0
 15 16  1  0  0  0
 16 17  1  0  0  0
 16 18  2  0  0  0
 21 22  2  0  0  0
 22 23  1  0  0  0
 23 24  2  0  0  0
 23 32  1  0  0  0
 32 33  1  0  0  0
 32 34  1  0  0  0
 31 26  1  0  0  0
 24 19  1  0  0  0
 11  3  1  0  0  0
 18 12  1  0  0  0
 11  7  1  0  0  0
  1  2  1  0  0  0
M  END
> <minimizedAffinity>
-8.54881

> <CNNscore>
0.5274690986

> <CNNaffinity>
7.0127396584

> <CNN_VS>
3.6990034580

> <CNNaffinity_variance>
0.1921135187

$$$$
[H]c1c([H])c([H])c2c([H])nc(N3C([H])([H])C([H])([H])N(C(=O)C4([H])C([H])([H])C([H])([H])N(S(=O)(=O)c5c([H])c([H])c6c([H])c([H])c([H])c([H])c6c5[H])C([H])([H])C4([H])[H])[C@]([H])(C([H])([H])C([H])([H])[H])C3([H])[H])nc2c1[H]


 39 44  0  0  0  0  0  0  0  0999 V2000
    0.6164  -51.7759  -19.2807 N   0  0  0  0  0  0  0  0  0  0  0  0
    0.6842  -53.2175  -19.3598 C   0  0  0  0  0  0  0  0  0  0  0  0
   -0.4260  -53.6816  -20.2400 C   0  0  0  0  0  0  0  0  0  0  0  0
   -0.3845  -53.0072  -21.5397 N   0  0  0  0  0  0  0  0  0  0  0  0
   -0.6363  -53.7617  -22.7083 C   0  0  0  0  0  0  0  0  0  0  0  0
   -0.8558  -55.0160  -22.5288 O   0  0  0  0  0  0  0  0  0  0  0  0
   -0.0786  -51.6098  -21.5678 C   0  0  0  0  0  0  0  0  0  0  0  0
   -0.2608  -51.0277  -20.1544 C   0  0  0  0  0  0  0  0  0  0  0  0
    1.4131  -51.0661  -18.3526 C   0  0  0  0  0  0  0  0  0  0  0  0
    0.8809  -50.1537  -17.5378 N   0  0  0  0  0  0  0  0  0  0  0  0
    1.6163  -49.4623  -16.6622 C   0  0  0  0  0  0  0  0  0  0  0  0
    2.9830  -49.6855  -16.5815 C   0  0  0  0  0  0  0  0  0  0  0  0
    3.4967  -50.6367  -17.4402 C   0  0  0  0  0  0  0  0  0  0  0  0
    2.7258  -51.3093  -18.3045 N   0  0  0  0  0  0  0  0  0  0  0  0
    3.7819  -48.9873  -15.6878 C   0  0  0  0  0  0  0  0  0  0  0  0
    3.2139  -48.0514  -14.8599 C   0  0  0  0  0  0  0  0  0  0  0  0
    1.8581  -47.7985  -14.9080 C   0  0  0  0  0  0  0  0  0  0  0  0
    1.0841  -48.5034  -15.8027 C   0  0  0  0  0  0  0  0  0  0  0  0
   -0.6708  -53.2453  -24.0822 C   0  0  0  0  0  0  0  0  0  0  0  0
    0.6306  -52.4547  -24.3186 C   0  0  0  0  0  0  0  0  0  0  0  0
    1.6926  -53.4653  -24.6894 C   0  0  0  0  0  0  0  0  0  0  0  0
    1.5159  -53.8340  -26.0607 N   0  0  0  0  0  0  0  0  0  0  0  0
    0.1184  -53.9625  -26.3689 C   0  0  0  0  0  0  0  0  0  0  0  0
   -0.7040  -54.3271  -25.1459 C   0  0  0  0  0  0  0  0  0  0  0  0
    2.3778  -52.7876  -27.1057 S   0  0  0  0  0  0  0  0  0  0  0  0
    1.4581  -52.0436  -28.0663 O   0  0  0  0  0  0  0  0  0  0  0  0
    3.4105  -53.5587  -27.9047 O   0  0  0  0  0  0  0  0  0  0  0  0
    3.1856  -51.5724  -26.1551 C   0  0  0  0  0  0  0  0  0  0  0  0
    2.8225  -50.2589  -26.3092 C   0  0  0  0  0  0  0  0  0  0  0  0
    3.4530  -49.2887  -25.5685 C   0  0  0  0  0  0  0  0  0  0  0  0
    4.4421  -49.6473  -24.6796 C   0  0  0  0  0  0  0  0  0  0  0  0
    5.0757  -48.6749  -23.9375 C   0  0  0  0  0  0  0  0  0  0  0  0
    6.0782  -49.0253  -23.0374 C   0  0  0  0  0  0  0  0  0  0  0  0
    6.4377  -50.3551  -22.8888 C   0  0  0  0  0  0  0  0  0  0  0  0
    5.7913  -51.3146  -23.6413 C   0  0  0  0  0  0  0  0  0  0  0  0
    4.8037  -50.9651  -24.5278 C   0  0  0  0  0  0  0  0  0  0  0  0
    4.1597  -51.9423  -25.2822 C   0  0  0  0  0  0  0  0  0  0  0  0
    1.3541  -51.3092  -21.9378 C   0  0  0  0  0  0  0  0  0  0  0  0
    1.4957  -49.8021  -22.0474 C   0  0  0  0  0  0  0  0  0  0  0  0
  9  1  1  0  0  0
  1  2  1  0  0  0
  2  3  1  0  0  0
  3  4  1  0  0  0
  4  5  1  0  0  0
  5  6  2  0  0  0
  5 19  1  0  0  0
 19 20  1  0  0  0
 20 21  1  0  0  0
 21 22  1  0  0  0
 22 25  1  0  0  0
 25 26  2  0  0  0
 25 27  2  0  0  0
 25 28  1  0  0  0
 28 29  2  0  0  0
 29 30  1  0  0  0
 30 31  2  0  0  0
 31 32  1  0  0  0
 32 33  2  0  0  0
 33 34  1  0  0  0
 34 35  2  0  0  0
 35 36  1  0  0  0
 36 37  2  0  0  0
 22 23  1  0  0  0
 23 24  1  0  0  0
  4  7  1  0  0  0
  7 38  1  0  0  0
 38 39  1  0  0  0
  7  8  1  0  0  0
  9 10  2  0  0  0
 10 11  1  0  0  0
 11 12  2  0  0  0
 12 13  1  0  0  0
 13 14  2  0  0  0
 12 15  1  0  0  0
 15 16  2  0  0  0
 16 17  1  0  0  0
 17 18  2  0  0  0
 14  9  1  0  0  0
  8  1  1  0  0  0
 18 11  1  0  0  0
 24 19  1  0  0  0
 37 28  1  0  0  0
 36 31  1  0  0  0
M  END
> <minimizedAffinity>
-8.50330

> <CNNscore>
0.2025001198

> <CNNaffinity>
7.1670379639

> <CNN_VS>
1.4513260126

> <CNNaffinity_variance>
0.1821349710

$$$$
[H]c1c([H])c([H])c2c([H])nc(N3C([H])([H])C([H])([H])N(C(=O)C4([H])C([H])([H])C([H])([H])N(S(=O)(=O)c5c([H])c([H])c6c([H])c([H])c([H])c([H])c6c5[H])C([H])([H])C4([H])[H])[C@]([H])(C([H])([H])C([H])([H])[H])C3([H])[H])nc2c1[H]


 39 44  0  0  0  0  0  0  0  0999 V2000
    1.0554  -50.8275  -18.7628 N   0  0  0  0  0  0  0  0  0  0  0  0
    1.1847  -52.2670  -18.7746 C   0  0  0  0  0  0  0  0  0  0  0  0
    0.0651  -52.8217  -19.5880 C   0  0  0  0  0  0  0  0  0  0  0  0
    0.0290  -52.2120  -20.9194 N   0  0  0  0  0  0  0  0  0  0  0  0
   -0.2310  -53.0341  -22.0396 C   0  0  0  0  0  0  0  0  0  0  0  0
   -0.3875  -54.2861  -21.7913 O   0  0  0  0  0  0  0  0  0  0  0  0
    0.2709  -50.8059  -21.0267 C   0  0  0  0  0  0  0  0  0  0  0  0
    0.1144  -50.1622  -19.6372 C   0  0  0  0  0  0  0  0  0  0  0  0
    1.8527  -50.0386  -17.9015 C   0  0  0  0  0  0  0  0  0  0  0  0
    2.2287  -50.4859  -16.7022 N   0  0  0  0  0  0  0  0  0  0  0  0
    2.9712  -49.7532  -15.8672 C   0  0  0  0  0  0  0  0  0  0  0  0
    3.3757  -48.4799  -16.2406 C   0  0  0  0  0  0  0  0  0  0  0  0
    2.9673  -48.0524  -17.4882 C   0  0  0  0  0  0  0  0  0  0  0  0
    2.2228  -48.8174  -18.2969 N   0  0  0  0  0  0  0  0  0  0  0  0
    4.1450  -47.6866  -15.4021 C   0  0  0  0  0  0  0  0  0  0  0  0
    4.5191  -48.1658  -14.1714 C   0  0  0  0  0  0  0  0  0  0  0  0
    4.1379  -49.4270  -13.7609 C   0  0  0  0  0  0  0  0  0  0  0  0
    3.3745  -50.1973  -14.6096 C   0  0  0  0  0  0  0  0  0  0  0  0
   -0.3386  -52.5889  -23.4345 C   0  0  0  0  0  0  0  0  0  0  0  0
    1.0107  -51.9590  -23.8308 C   0  0  0  0  0  0  0  0  0  0  0  0
    1.9223  -53.0978  -24.2293 C   0  0  0  0  0  0  0  0  0  0  0  0
    1.5818  -53.5155  -25.5549 N   0  0  0  0  0  0  0  0  0  0  0  0
    0.1560  -53.5059  -25.7324 C   0  0  0  0  0  0  0  0  0  0  0  0
   -0.5831  -53.7143  -24.4228 C   0  0  0  0  0  0  0  0  0  0  0  0
    2.4477  -52.6255  -26.7330 S   0  0  0  0  0  0  0  0  0  0  0  0
    1.5276  -51.9822  -27.7634 O   0  0  0  0  0  0  0  0  0  0  0  0
    3.4486  -53.5130  -27.4472 O   0  0  0  0  0  0  0  0  0  0  0  0
    3.2992  -51.3234  -25.9505 C   0  0  0  0  0  0  0  0  0  0  0  0
    4.3483  -51.6211  -25.1188 C   0  0  0  0  0  0  0  0  0  0  0  0
    5.0276  -50.6046  -24.4920 C   0  0  0  0  0  0  0  0  0  0  0  0
    4.6467  -49.2986  -24.7068 C   0  0  0  0  0  0  0  0  0  0  0  0
    5.3264  -48.2790  -24.0775 C   0  0  0  0  0  0  0  0  0  0  0  0
    4.9492  -46.9552  -24.2857 C   0  0  0  0  0  0  0  0  0  0  0  0
    3.8882  -46.6647  -25.1279 C   0  0  0  0  0  0  0  0  0  0  0  0
    3.2196  -47.7000  -25.7491 C   0  0  0  0  0  0  0  0  0  0  0  0
    3.5943  -49.0038  -25.5411 C   0  0  0  0  0  0  0  0  0  0  0  0
    2.9111  -50.0397  -26.1727 C   0  0  0  0  0  0  0  0  0  0  0  0
    1.6743  -50.4629  -21.4658 C   0  0  0  0  0  0  0  0  0  0  0  0
    1.6823  -49.0051  -21.8881 C   0  0  0  0  0  0  0  0  0  0  0  0
  9  1  1  0  0  0
  1  2  1  0  0  0
  2  3  1  0  0  0
  3  4  1  0  0  0
  4  5  1  0  0  0
  5  6  2  0  0  0
  5 19  1  0  0  0
 19 20  1  0  0  0
 20 21  1  0  0  0
 21 22  1  0  0  0
 22 25  1  0  0  0
 25 26  2  0  0  0
 25 27  2  0  0  0
 25 28  1  0  0  0
 28 29  2  0  0  0
 29 30  1  0  0  0
 30 31  2  0  0  0
 31 32  1  0  0  0
 32 33  2  0  0  0
 33 34  1  0  0  0
 34 35  2  0  0  0
 35 36  1  0  0  0
 36 37  2  0  0  0
 22 23  1  0  0  0
 23 24  1  0  0  0
  4  7  1  0  0  0
  7 38  1  0  0  0
 38 39  1  0  0  0
  7  8  1  0  0  0
  9 10  2  0  0  0
 10 11  1  0  0  0
 11 12  2  0  0  0
 12 13  1  0  0  0
 13 14  2  0  0  0
 12 15  1  0  0  0
 15 16  2  0  0  0
 16 17  1  0  0  0
 17 18  2  0  0  0
 14  9  1  0  0  0
  8  1  1  0  0  0
 18 11  1  0  0  0
 24 19  1  0  0  0
 37 28  1  0  0  0
 36 31  1  0  0  0
M  END
> <minimizedAffinity>
-8.11918

> <CNNscore>
0.1834394485

> <CNNaffinity>
6.7927331924

> <CNN_VS>
1.2460552454

> <CNNaffinity_variance>
0.4326931536

$$$$
[H]c1c([H])c([H])c2c([H])nc(N3C([H])([H])C([H])([H])N(C(=O)C4([H])C([H])([H])C([H])([H])N(S(=O)(=O)c5c([H])c([H])c6c([H])c([H])c([H])c([H])c6c5[H])C([H])([H])C4([H])[H])[C@]([H])(C([H])([H])C([H])([H])[H])C3([H])[H])nc2c1[H]


 39 44  0  0  0  0  0  0  0  0999 V2000
    1.5161  -52.1093  -23.7825 N   0  0  0  0  0  0  0  0  0  0  0  0
    0.6548  -51.8716  -22.6464 C   0  0  0  0  0  0  0  0  0  0  0  0
    1.4869  -51.9616  -21.4127 C   0  0  0  0  0  0  0  0  0  0  0  0
    2.6407  -51.0622  -21.4890 N   0  0  0  0  0  0  0  0  0  0  0  0
    3.0093  -50.3261  -20.3398 C   0  0  0  0  0  0  0  0  0  0  0  0
    2.2619  -50.4897  -19.3063 O   0  0  0  0  0  0  0  0  0  0  0  0
    3.3391  -50.9613  -22.7337 C   0  0  0  0  0  0  0  0  0  0  0  0
    2.9532  -52.1562  -23.6241 C   0  0  0  0  0  0  0  0  0  0  0  0
    0.9716  -52.2927  -25.0746 C   0  0  0  0  0  0  0  0  0  0  0  0
   -0.3352  -52.1507  -25.3025 N   0  0  0  0  0  0  0  0  0  0  0  0
   -0.8731  -52.3314  -26.5123 C   0  0  0  0  0  0  0  0  0  0  0  0
   -0.0622  -52.6796  -27.5825 C   0  0  0  0  0  0  0  0  0  0  0  0
    1.2838  -52.8171  -27.3075 C   0  0  0  0  0  0  0  0  0  0  0  0
    1.7849  -52.6272  -26.0802 N   0  0  0  0  0  0  0  0  0  0  0  0
   -0.5816  -52.8785  -28.8533 C   0  0  0  0  0  0  0  0  0  0  0  0
   -1.9295  -52.7291  -29.0651 C   0  0  0  0  0  0  0  0  0  0  0  0
   -2.7716  -52.3837  -28.0278 C   0  0  0  0  0  0  0  0  0  0  0  0
   -2.2343  -52.1910  -26.7746 C   0  0  0  0  0  0  0  0  0  0  0  0
    4.1520  -49.4112  -20.2268 C   0  0  0  0  0  0  0  0  0  0  0  0
    3.9715  -48.3034  -21.2825 C   0  0  0  0  0  0  0  0  0  0  0  0
    3.0439  -47.2732  -20.6783 C   0  0  0  0  0  0  0  0  0  0  0  0
    3.7913  -46.4614  -19.7674 N   0  0  0  0  0  0  0  0  0  0  0  0
    4.7179  -47.2678  -19.0220 C   0  0  0  0  0  0  0  0  0  0  0  0
    4.2441  -48.7038  -18.8874 C   0  0  0  0  0  0  0  0  0  0  0  0
    4.4993  -45.1202  -20.5610 S   0  0  0  0  0  0  0  0  0  0  0  0
    5.9472  -44.8982  -20.1411 O   0  0  0  0  0  0  0  0  0  0  0  0
    3.7053  -43.8568  -20.2912 O   0  0  0  0  0  0  0  0  0  0  0  0
    4.5235  -45.4213  -22.2761 C   0  0  0  0  0  0  0  0  0  0  0  0
    5.6947  -45.8282  -22.8623 C   0  0  0  0  0  0  0  0  0  0  0  0
    5.7299  -46.0666  -24.2149 C   0  0  0  0  0  0  0  0  0  0  0  0
    4.5882  -45.8943  -24.9657 C   0  0  0  0  0  0  0  0  0  0  0  0
    4.6232  -46.1318  -26.3222 C   0  0  0  0  0  0  0  0  0  0  0  0
    3.4758  -45.9592  -27.0914 C   0  0  0  0  0  0  0  0  0  0  0  0
    2.2975  -45.5480  -26.4898 C   0  0  0  0  0  0  0  0  0  0  0  0
    2.2826  -45.3150  -25.1296 C   0  0  0  0  0  0  0  0  0  0  0  0
    3.4158  -45.4861  -24.3746 C   0  0  0  0  0  0  0  0  0  0  0  0
    3.3884  -45.2467  -23.0032 C   0  0  0  0  0  0  0  0  0  0  0  0
    2.9746  -49.7356  -23.5367 C   0  0  0  0  0  0  0  0  0  0  0  0
    3.9581  -49.6291  -24.6878 C   0  0  0  0  0  0  0  0  0  0  0  0
  9  1  1  0  0  0
  1  2  1  0  0  0
  2  3  1  0  0  0
  3  4  1  0  0  0
  4  5  1  0  0  0
  5  6  2  0  0  0
  5 19  1  0  0  0
 19 20  1  0  0  0
 20 21  1  0  0  0
 21 22  1  0  0  0
 22 25  1  0  0  0
 25 26  2  0  0  0
 25 27  2  0  0  0
 25 28  1  0  0  0
 28 29  2  0  0  0
 29 30  1  0  0  0
 30 31  2  0  0  0
 31 32  1  0  0  0
 32 33  2  0  0  0
 33 34  1  0  0  0
 34 35  2  0  0  0
 35 36  1  0  0  0
 36 37  2  0  0  0
 22 23  1  0  0  0
 23 24  1  0  0  0
  4  7  1  0  0  0
  7 38  1  0  0  0
 38 39  1  0  0  0
  7  8  1  0  0  0
  9 10  2  0  0  0
 10 11  1  0  0  0
 11 12  2  0  0  0
 12 13  1  0  0  0
 13 14  2  0  0  0
 12 15  1  0  0  0
 15 16  2  0  0  0
 16 17  1  0  0  0
 17 18  2  0  0  0
 14  9  1  0  0  0
  8  1  1  0  0  0
 18 11  1  0  0  0
 24 19  1  0  0  0
 37 28  1  0  0  0
 36 31  1  0  0  0
M  END
> <minimizedAffinity>
-8.39631

> <CNNscore>
0.1477877498

> <CNNaffinity>
6.8252878189

> <CNN_VS>
1.0086939335

> <CNNaffinity_variance>
0.1382421553

$$$$
[H]c1c([H])c([H])c2c([H])nc(N3C([H])([H])C([H])([H])N(C(=O)C4([H])C([H])([H])C([H])([H])N(S(=O)(=O)c5c([H])c([H])c6c([H])c([H])c([H])c([H])c6c5[H])C([H])([H])C4([H])[H])[C@]([H])(C([H])([H])C([H])([H])[H])C3([H])[H])nc2c1[H]


 39 44  0  0  0  0  0  0  0  0999 V2000
    7.3061  -46.0893  -19.6224 N   0  0  0  0  0  0  0  0  0  0  0  0
    5.9381  -45.6396  -19.7461 C   0  0  0  0  0  0  0  0  0  0  0  0
    5.6303  -45.5000  -21.1982 C   0  0  0  0  0  0  0  0  0  0  0  0
    5.9211  -46.7412  -21.9198 N   0  0  0  0  0  0  0  0  0  0  0  0
    5.0160  -47.1815  -22.9124 C   0  0  0  0  0  0  0  0  0  0  0  0
    3.9706  -46.4517  -23.0805 O   0  0  0  0  0  0  0  0  0  0  0  0
    7.1094  -47.4608  -21.5773 C   0  0  0  0  0  0  0  0  0  0  0  0
    8.0466  -46.5332  -20.7831 C   0  0  0  0  0  0  0  0  0  0  0  0
    7.9466  -46.1126  -18.3618 C   0  0  0  0  0  0  0  0  0  0  0  0
    7.2642  -46.3589  -17.2423 N   0  0  0  0  0  0  0  0  0  0  0  0
    7.8462  -46.3735  -16.0396 C   0  0  0  0  0  0  0  0  0  0  0  0
    9.2066  -46.1259  -15.9287 C   0  0  0  0  0  0  0  0  0  0  0  0
    9.8783  -45.8754  -17.1086 C   0  0  0  0  0  0  0  0  0  0  0  0
    9.2586  -45.8698  -18.2958 N   0  0  0  0  0  0  0  0  0  0  0  0
    9.8481  -46.1296  -14.6988 C   0  0  0  0  0  0  0  0  0  0  0  0
    9.1263  -46.3835  -13.5591 C   0  0  0  0  0  0  0  0  0  0  0  0
    7.7710  -46.6345  -13.6249 C   0  0  0  0  0  0  0  0  0  0  0  0
    7.1548  -46.6260  -14.8565 C   0  0  0  0  0  0  0  0  0  0  0  0
    5.1661  -48.3757  -23.7531 C   0  0  0  0  0  0  0  0  0  0  0  0
    4.4494  -49.5411  -23.0442 C   0  0  0  0  0  0  0  0  0  0  0  0
    2.9840  -49.4328  -23.4012 C   0  0  0  0  0  0  0  0  0  0  0  0
    2.7943  -49.9502  -24.7218 N   0  0  0  0  0  0  0  0  0  0  0  0
    3.8782  -49.5515  -25.5766 C   0  0  0  0  0  0  0  0  0  0  0  0
    4.5168  -48.2523  -25.1192 C   0  0  0  0  0  0  0  0  0  0  0  0
    2.4961  -51.6355  -24.6964 S   0  0  0  0  0  0  0  0  0  0  0  0
    1.7994  -52.0801  -23.4161 O   0  0  0  0  0  0  0  0  0  0  0  0
    3.7894  -52.4116  -24.8526 O   0  0  0  0  0  0  0  0  0  0  0  0
    1.4258  -52.0440  -26.0080 C   0  0  0  0  0  0  0  0  0  0  0  0
    1.9621  -52.4979  -27.1859 C   0  0  0  0  0  0  0  0  0  0  0  0
    1.1305  -52.8211  -28.2306 C   0  0  0  0  0  0  0  0  0  0  0  0
   -0.2321  -52.6855  -28.0821 C   0  0  0  0  0  0  0  0  0  0  0  0
   -1.0664  -53.0081  -29.1298 C   0  0  0  0  0  0  0  0  0  0  0  0
   -2.4451  -52.8734  -28.9918 C   0  0  0  0  0  0  0  0  0  0  0  0
   -2.9772  -52.4142  -27.7979 C   0  0  0  0  0  0  0  0  0  0  0  0
   -2.1249  -52.0960  -26.7600 C   0  0  0  0  0  0  0  0  0  0  0  0
   -0.7662  -52.2300  -26.9000 C   0  0  0  0  0  0  0  0  0  0  0  0
    0.0834  -51.9047  -25.8459 C   0  0  0  0  0  0  0  0  0  0  0  0
    6.8631  -48.6437  -20.6717 C   0  0  0  0  0  0  0  0  0  0  0  0
    8.1897  -49.3520  -20.4670 C   0  0  0  0  0  0  0  0  0  0  0  0
  9  1  1  0  0  0
  1  2  1  0  0  0
  2  3  1  0  0  0
  3  4  1  0  0  0
  4  5  1  0  0  0
  5  6  2  0  0  0
  5 19  1  0  0  0
 19 20  1  0  0  0
 20 21  1  0  0  0
 21 22  1  0  0  0
 22 25  1  0  0  0
 25 26  2  0  0  0
 25 27  2  0  0  0
 25 28  1  0  0  0
 28 29  2  0  0  0
 29 30  1  0  0  0
 30 31  2  0  0  0
 31 32  1  0  0  0
 32 33  2  0  0  0
 33 34  1  0  0  0
 34 35  2  0  0  0
 35 36  1  0  0  0
 36 37  2  0  0  0
 22 23  1  0  0  0
 23 24  1  0  0  0
  4  7  1  0  0  0
  7 38  1  0  0  0
 38 39  1  0  0  0
  7  8  1  0  0  0
  9 10  2  0  0  0
 10 11  1  0  0  0
 11 12  2  0  0  0
 12 13  1  0  0  0
 13 14  2  0  0  0
 12 15  1  0  0  0
 15 16  2  0  0  0
 16 17  1  0  0  0
 17 18  2  0  0  0
 14  9  1  0  0  0
  8  1  1  0  0  0
 18 11  1  0  0  0
 24 19  1  0  0  0
 37 28  1  0  0  0
 36 31  1  0  0  0
M  END
> <minimizedAffinity>
-7.20718

> <CNNscore>
0.1226260811

> <CNNaffinity>
6.0683693886

> <CNN_VS>
0.7441403866

> <CNNaffinity_variance>
0.2889407575

$$$$
[H]c1c([H])c([H])c2c([H])nc(N3C([H])([H])C([H])([H])N(C(=O)C4([H])C([H])([H])C([H])([H])N(S(=O)(=O)c5c([H])c([H])c6c([H])c([H])c([H])c([H])c6c5[H])C([H])([H])C4([H])[H])[C@]([H])(C([H])([H])C([H])([H])[H])C3([H])[H])nc2c1[H]


 39 44  0  0  0  0  0  0  0  0999 V2000
    6.6085  -48.5731  -21.2639 N   0  0  0  0  0  0  0  0  0  0  0  0
    6.2717  -47.8761  -22.4845 C   0  0  0  0  0  0  0  0  0  0  0  0
    6.3069  -48.8631  -23.6013 C   0  0  0  0  0  0  0  0  0  0  0  0
    5.4499  -50.0156  -23.3129 N   0  0  0  0  0  0  0  0  0  0  0  0
    4.6526  -50.5498  -24.3507 C   0  0  0  0  0  0  0  0  0  0  0  0
    4.7261  -49.9433  -25.4823 O   0  0  0  0  0  0  0  0  0  0  0  0
    5.4510  -50.5439  -21.9832 C   0  0  0  0  0  0  0  0  0  0  0  0
    6.6888  -50.0172  -21.2348 C   0  0  0  0  0  0  0  0  0  0  0  0
    6.8585  -47.8575  -20.0701 C   0  0  0  0  0  0  0  0  0  0  0  0
    8.0894  -47.4571  -19.7470 N   0  0  0  0  0  0  0  0  0  0  0  0
    8.3507  -46.7909  -18.6186 C   0  0  0  0  0  0  0  0  0  0  0  0
    7.3205  -46.4954  -17.7379 C   0  0  0  0  0  0  0  0  0  0  0  0
    6.0616  -46.9258  -18.1066 C   0  0  0  0  0  0  0  0  0  0  0  0
    5.8401  -47.5914  -19.2475 N   0  0  0  0  0  0  0  0  0  0  0  0
    7.5501  -45.8078  -16.5552 C   0  0  0  0  0  0  0  0  0  0  0  0
    8.8249  -45.4068  -16.2414 C   0  0  0  0  0  0  0  0  0  0  0  0
    9.8784  -45.6807  -17.0896 C   0  0  0  0  0  0  0  0  0  0  0  0
    9.6273  -46.3643  -18.2585 C   0  0  0  0  0  0  0  0  0  0  0  0
    3.7675  -51.7168  -24.2498 C   0  0  0  0  0  0  0  0  0  0  0  0
    2.3271  -51.1987  -24.0731 C   0  0  0  0  0  0  0  0  0  0  0  0
    1.8059  -50.8809  -25.4566 C   0  0  0  0  0  0  0  0  0  0  0  0
    1.4248  -52.1034  -26.0950 N   0  0  0  0  0  0  0  0  0  0  0  0
    2.3707  -53.1421  -25.7938 C   0  0  0  0  0  0  0  0  0  0  0  0
    3.7513  -52.5865  -25.4934 C   0  0  0  0  0  0  0  0  0  0  0  0
   -0.2029  -52.5072  -25.7520 S   0  0  0  0  0  0  0  0  0  0  0  0
   -0.6785  -53.7168  -26.5475 O   0  0  0  0  0  0  0  0  0  0  0  0
   -1.1188  -51.3333  -26.0393 O   0  0  0  0  0  0  0  0  0  0  0  0
   -0.3403  -52.9375  -24.0701 C   0  0  0  0  0  0  0  0  0  0  0  0
   -0.6652  -54.2282  -23.7394 C   0  0  0  0  0  0  0  0  0  0  0  0
   -0.7803  -54.5819  -22.4168 C   0  0  0  0  0  0  0  0  0  0  0  0
   -0.5677  -53.6355  -21.4390 C   0  0  0  0  0  0  0  0  0  0  0  0
   -0.6843  -53.9891  -20.1126 C   0  0  0  0  0  0  0  0  0  0  0  0
   -0.4734  -53.0406  -19.1157 C   0  0  0  0  0  0  0  0  0  0  0  0
   -0.1454  -51.7393  -19.4600 C   0  0  0  0  0  0  0  0  0  0  0  0
   -0.0334  -51.4046  -20.7943 C   0  0  0  0  0  0  0  0  0  0  0  0
   -0.2423  -52.3424  -21.7742 C   0  0  0  0  0  0  0  0  0  0  0  0
   -0.1274  -51.9921  -23.1169 C   0  0  0  0  0  0  0  0  0  0  0  0
    4.2694  -50.1023  -21.1534 C   0  0  0  0  0  0  0  0  0  0  0  0
    3.6653  -51.3399  -20.5156 C   0  0  0  0  0  0  0  0  0  0  0  0
  9  1  1  0  0  0
  1  2  1  0  0  0
  2  3  1  0  0  0
  3  4  1  0  0  0
  4  5  1  0  0  0
  5  6  2  0  0  0
  5 19  1  0  0  0
 19 20  1  0  0  0
 20 21  1  0  0  0
 21 22  1  0  0  0
 22 25  1  0  0  0
 25 26  2  0  0  0
 25 27  2  0  0  0
 25 28  1  0  0  0
 28 29  2  0  0  0
 29 30  1  0  0  0
 30 31  2  0  0  0
 31 32  1  0  0  0
 32 33  2  0  0  0
 33 34  1  0  0  0
 34 35  2  0  0  0
 35 36  1  0  0  0
 36 37  2  0  0  0
 22 23  1  0  0  0
 23 24  1  0  0  0
  4  7  1  0  0  0
  7 38  1  0  0  0
 38 39  1  0  0  0
  7  8  1  0  0  0
  9 10  2  0  0  0
 10 11  1  0  0  0
 11 12  2  0  0  0
 12 13  1  0  0  0
 13 14  2  0  0  0
 12 15  1  0  0  0
 15 16  2  0  0  0
 16 17  1  0  0  0
 17 18  2  0  0  0
 14  9  1  0  0  0
  8  1  1  0  0  0
 18 11  1  0  0  0
 24 19  1  0  0  0
 37 28  1  0  0  0
 36 31  1  0  0  0
M  END
> <minimizedAffinity>
-8.36102

> <CNNscore>
0.0997890979

> <CNNaffinity>
6.5541086197

> <CNN_VS>
0.6540285945

> <CNNaffinity_variance>
0.1708698571

$$$$
[H]c1c([H])c([H])c2c([H])nc(N3C([H])([H])C([H])([H])N(C(=O)C4([H])C([H])([H])C([H])([H])N(S(=O)(=O)c5c([H])c([H])c6c([H])c([H])c([H])c([H])c6c5[H])C([H])([H])C4([H])[H])[C@]([H])(C([H])([H])C([H])([H])[H])C3([H])[H])nc2c1[H]


 39 44  0  0  0  0  0  0  0  0999 V2000
    4.0274  -44.6931  -27.6057 N   0  0  0  0  0  0  0  0  0  0  0  0
    4.9587  -43.7966  -26.9591 C   0  0  0  0  0  0  0  0  0  0  0  0
    4.6006  -43.7271  -25.5136 C   0  0  0  0  0  0  0  0  0  0  0  0
    4.5458  -45.0651  -24.9197 N   0  0  0  0  0  0  0  0  0  0  0  0
    5.0875  -45.2615  -23.6289 C   0  0  0  0  0  0  0  0  0  0  0  0
    5.6245  -44.2281  -23.0837 O   0  0  0  0  0  0  0  0  0  0  0  0
    3.9526  -46.1203  -25.6825 C   0  0  0  0  0  0  0  0  0  0  0  0
    3.1224  -45.5083  -26.8252 C   0  0  0  0  0  0  0  0  0  0  0  0
    3.9875  -44.7980  -29.0153 C   0  0  0  0  0  0  0  0  0  0  0  0
    3.3322  -45.7916  -29.6180 N   0  0  0  0  0  0  0  0  0  0  0  0
    3.2917  -45.9174  -30.9476 C   0  0  0  0  0  0  0  0  0  0  0  0
    3.9475  -44.9936  -31.7481 C   0  0  0  0  0  0  0  0  0  0  0  0
    4.6140  -43.9804  -31.0883 C   0  0  0  0  0  0  0  0  0  0  0  0
    4.6311  -43.8885  -29.7524 N   0  0  0  0  0  0  0  0  0  0  0  0
    3.9316  -45.0900  -33.1318 C   0  0  0  0  0  0  0  0  0  0  0  0
    3.2528  -46.1216  -33.7312 C   0  0  0  0  0  0  0  0  0  0  0  0
    2.5873  -47.0622  -32.9718 C   0  0  0  0  0  0  0  0  0  0  0  0
    2.6162  -46.9469  -31.5998 C   0  0  0  0  0  0  0  0  0  0  0  0
    5.0868  -46.5192  -22.8714 C   0  0  0  0  0  0  0  0  0  0  0  0
    3.8585  -46.5053  -21.9412 C   0  0  0  0  0  0  0  0  0  0  0  0
    2.6798  -46.9647  -22.7696 C   0  0  0  0  0  0  0  0  0  0  0  0
    2.7322  -48.3895  -22.8913 N   0  0  0  0  0  0  0  0  0  0  0  0
    4.0877  -48.8266  -23.0808 C   0  0  0  0  0  0  0  0  0  0  0  0
    4.9450  -47.7584  -23.7358 C   0  0  0  0  0  0  0  0  0  0  0  0
    1.9149  -49.1581  -21.5985 S   0  0  0  0  0  0  0  0  0  0  0  0
    0.7911  -48.2986  -21.0326 O   0  0  0  0  0  0  0  0  0  0  0  0
    2.8822  -49.5067  -20.4839 O   0  0  0  0  0  0  0  0  0  0  0  0
    1.1713  -50.6199  -22.1841 C   0  0  0  0  0  0  0  0  0  0  0  0
    1.3418  -50.9710  -23.4989 C   0  0  0  0  0  0  0  0  0  0  0  0
    0.7587  -52.1198  -23.9761 C   0  0  0  0  0  0  0  0  0  0  0  0
    0.0099  -52.9051  -23.1278 C   0  0  0  0  0  0  0  0  0  0  0  0
   -0.5763  -54.0564  -23.6060 C   0  0  0  0  0  0  0  0  0  0  0  0
   -1.3368  -54.8571  -22.7583 C   0  0  0  0  0  0  0  0  0  0  0  0
   -1.5031  -54.4939  -21.4317 C   0  0  0  0  0  0  0  0  0  0  0  0
   -0.9080  -53.3368  -20.9716 C   0  0  0  0  0  0  0  0  0  0  0  0
   -0.1591  -52.5500  -21.8104 C   0  0  0  0  0  0  0  0  0  0  0  0
    0.4353  -51.3842  -21.3345 C   0  0  0  0  0  0  0  0  0  0  0  0
    4.9587  -47.0183  -26.3616 C   0  0  0  0  0  0  0  0  0  0  0  0
    4.1913  -48.1277  -27.0573 C   0  0  0  0  0  0  0  0  0  0  0  0
  9  1  1  0  0  0
  1  2  1  0  0  0
  2  3  1  0  0  0
  3  4  1  0  0  0
  4  5  1  0  0  0
  5  6  2  0  0  0
  5 19  1  0  0  0
 19 20  1  0  0  0
 20 21  1  0  0  0
 21 22  1  0  0  0
 22 25  1  0  0  0
 25 26  2  0  0  0
 25 27  2  0  0  0
 25 28  1  0  0  0
 28 29  2  0  0  0
 29 30  1  0  0  0
 30 31  2  0  0  0
 31 32  1  0  0  0
 32 33  2  0  0  0
 33 34  1  0  0  0
 34 35  2  0  0  0
 35 36  1  0  0  0
 36 37  2  0  0  0
 22 23  1  0  0  0
 23 24  1  0  0  0
  4  7  1  0  0  0
  7 38  1  0  0  0
 38 39  1  0  0  0
  7  8  1  0  0  0
  9 10  2  0  0  0
 10 11  1  0  0  0
 11 12  2  0  0  0
 12 13  1  0  0  0
 13 14  2  0  0  0
 12 15  1  0  0  0
 15 16  2  0  0  0
 16 17  1  0  0  0
 17 18  2  0  0  0
 14  9  1  0  0  0
  8  1  1  0  0  0
 18 11  1  0  0  0
 24 19  1  0  0  0
 37 28  1  0  0  0
 36 31  1  0  0  0
M  END
> <minimizedAffinity>
-8.80893

> <CNNscore>
0.0916219577

> <CNNaffinity>
5.8924283981

> <CNN_VS>
0.5398758054

> <CNNaffinity_variance>
0.4692757726

$$$$
[H]c1c([H])c([H])c2c([H])nc(N3C([H])([H])C([H])([H])N(C(=O)C4([H])C([H])([H])C([H])([H])N(S(=O)(=O)c5c([H])c([H])c6c([H])c([H])c([H])c([H])c6c5[H])C([H])([H])C4([H])[H])[C@]([H])(C([H])([H])C([H])([H])[H])C3([H])[H])nc2c1[H]


 39 44  0  0  0  0  0  0  0  0999 V2000
    1.6216  -51.9720  -23.7983 N   0  0  0  0  0  0  0  0  0  0  0  0
    1.1288  -51.6226  -22.4853 C   0  0  0  0  0  0  0  0  0  0  0  0
    2.2633  -51.7346  -21.5245 C   0  0  0  0  0  0  0  0  0  0  0  0
    3.4090  -50.9363  -21.9670 N   0  0  0  0  0  0  0  0  0  0  0  0
    4.1323  -50.1908  -21.0082 C   0  0  0  0  0  0  0  0  0  0  0  0
    3.6927  -50.2542  -19.8014 O   0  0  0  0  0  0  0  0  0  0  0  0
    3.7386  -50.9391  -23.3593 C   0  0  0  0  0  0  0  0  0  0  0  0
    3.0393  -52.1306  -24.0383 C   0  0  0  0  0  0  0  0  0  0  0  0
    0.7278  -52.1579  -24.8783 C   0  0  0  0  0  0  0  0  0  0  0  0
    1.1730  -52.3893  -26.1144 N   0  0  0  0  0  0  0  0  0  0  0  0
    0.3473  -52.5555  -27.1517 C   0  0  0  0  0  0  0  0  0  0  0  0
   -1.0247  -52.4885  -26.9585 C   0  0  0  0  0  0  0  0  0  0  0  0
   -1.4469  -52.2477  -25.6663 C   0  0  0  0  0  0  0  0  0  0  0  0
   -0.5870  -52.0866  -24.6524 N   0  0  0  0  0  0  0  0  0  0  0  0
   -1.9154  -52.6532  -28.0091 C   0  0  0  0  0  0  0  0  0  0  0  0
   -1.4355  -52.8885  -29.2735 C   0  0  0  0  0  0  0  0  0  0  0  0
   -0.0778  -52.9625  -29.5092 C   0  0  0  0  0  0  0  0  0  0  0  0
    0.7881  -52.7961  -28.4514 C   0  0  0  0  0  0  0  0  0  0  0  0
    5.3211  -49.3690  -21.2669 C   0  0  0  0  0  0  0  0  0  0  0  0
    4.8602  -47.9039  -21.3907 C   0  0  0  0  0  0  0  0  0  0  0  0
    4.7503  -47.3617  -19.9834 C   0  0  0  0  0  0  0  0  0  0  0  0
    6.0629  -47.0434  -19.5108 N   0  0  0  0  0  0  0  0  0  0  0  0
    7.0037  -48.0440  -19.9329 C   0  0  0  0  0  0  0  0  0  0  0  0
    6.3430  -49.3944  -20.1453 C   0  0  0  0  0  0  0  0  0  0  0  0
    6.5033  -45.4406  -19.9196 S   0  0  0  0  0  0  0  0  0  0  0  0
    7.3332  -44.7733  -18.8296 O   0  0  0  0  0  0  0  0  0  0  0  0
    5.2718  -44.5986  -20.1910 O   0  0  0  0  0  0  0  0  0  0  0  0
    7.4981  -45.4705  -21.3487 C   0  0  0  0  0  0  0  0  0  0  0  0
    8.8597  -45.3797  -21.2119 C   0  0  0  0  0  0  0  0  0  0  0  0
    9.6573  -45.3987  -22.3304 C   0  0  0  0  0  0  0  0  0  0  0  0
    9.0794  -45.5091  -23.5758 C   0  0  0  0  0  0  0  0  0  0  0  0
    9.8785  -45.5269  -24.6978 C   0  0  0  0  0  0  0  0  0  0  0  0
    9.3054  -45.6363  -25.9618 C   0  0  0  0  0  0  0  0  0  0  0  0
    7.9289  -45.7277  -26.0895 C   0  0  0  0  0  0  0  0  0  0  0  0
    7.1453  -45.7080  -24.9535 C   0  0  0  0  0  0  0  0  0  0  0  0
    7.7140  -45.5998  -23.7091 C   0  0  0  0  0  0  0  0  0  0  0  0
    6.9127  -45.5799  -22.5706 C   0  0  0  0  0  0  0  0  0  0  0  0
    3.2497  -49.7183  -24.1014 C   0  0  0  0  0  0  0  0  0  0  0  0
    4.4251  -49.1456  -24.8722 C   0  0  0  0  0  0  0  0  0  0  0  0
  9  1  1  0  0  0
  1  2  1  0  0  0
  2  3  1  0  0  0
  3  4  1  0  0  0
  4  5  1  0  0  0
  5  6  2  0  0  0
  5 19  1  0  0  0
 19 20  1  0  0  0
 20 21  1  0  0  0
 21 22  1  0  0  0
 22 25  1  0  0  0
 25 26  2  0  0  0
 25 27  2  0  0  0
 25 28  1  0  0  0
 28 29  2  0  0  0
 29 30  1  0  0  0
 30 31  2  0  0  0
 31 32  1  0  0  0
 32 33  2  0  0  0
 33 34  1  0  0  0
 34 35  2  0  0  0
 35 36  1  0  0  0
 36 37  2  0  0  0
 22 23  1  0  0  0
 23 24  1  0  0  0
  4  7  1  0  0  0
  7 38  1  0  0  0
 38 39  1  0  0  0
  7  8  1  0  0  0
  9 10  2  0  0  0
 10 11  1  0  0  0
 11 12  2  0  0  0
 12 13  1  0  0  0
 13 14  2  0  0  0
 12 15  1  0  0  0
 15 16  2  0  0  0
 16 17  1  0  0  0
 17 18  2  0  0  0
 14  9  1  0  0  0
  8  1  1  0  0  0
 18 11  1  0  0  0
 24 19  1  0  0  0
 37 28  1  0  0  0
 36 31  1  0  0  0
M  END
> <minimizedAffinity>
-6.66164

> <CNNscore>
0.0872960314

> <CNNaffinity>
6.4887876511

> <CNN_VS>
0.5664454103

> <CNNaffinity_variance>
0.3789536953

$$$$
[H]c1c([H])c([H])c2c([H])nc(N3C([H])([H])C([H])([H])N(C(=O)C4([H])C([H])([H])C([H])([H])N(S(=O)(=O)c5c([H])c([H])c6c([H])c([H])c([H])c([H])c6c5[H])C([H])([H])C4([H])[H])[C@]([H])(C([H])([H])C([H])([H])[H])C3([H])[H])nc2c1[H]


 39 44  0  0  0  0  0  0  0  0999 V2000
    2.2212  -51.7066  -23.8270 N   0  0  0  0  0  0  0  0  0  0  0  0
    1.8792  -51.6893  -22.4228 C   0  0  0  0  0  0  0  0  0  0  0  0
    3.1481  -51.6340  -21.6420 C   0  0  0  0  0  0  0  0  0  0  0  0
    3.9811  -50.5077  -22.0702 N   0  0  0  0  0  0  0  0  0  0  0  0
    4.6505  -49.7420  -21.0884 C   0  0  0  0  0  0  0  0  0  0  0  0
    4.4410  -50.0896  -19.8681 O   0  0  0  0  0  0  0  0  0  0  0  0
    4.0709  -50.2259  -23.4701 C   0  0  0  0  0  0  0  0  0  0  0  0
    3.5771  -51.4506  -24.2613 C   0  0  0  0  0  0  0  0  0  0  0  0
    1.2348  -51.9660  -24.8066 C   0  0  0  0  0  0  0  0  0  0  0  0
    1.5656  -52.2069  -26.0763 N   0  0  0  0  0  0  0  0  0  0  0  0
    0.6500  -52.4421  -27.0207 C   0  0  0  0  0  0  0  0  0  0  0  0
   -0.6973  -52.4398  -26.6908 C   0  0  0  0  0  0  0  0  0  0  0  0
   -1.0001  -52.1869  -25.3678 C   0  0  0  0  0  0  0  0  0  0  0  0
   -0.0526  -51.9557  -24.4499 N   0  0  0  0  0  0  0  0  0  0  0  0
   -1.6789  -52.6772  -27.6419 C   0  0  0  0  0  0  0  0  0  0  0  0
   -1.3163  -52.9208  -28.9432 C   0  0  0  0  0  0  0  0  0  0  0  0
    0.0129  -52.9319  -29.3138 C   0  0  0  0  0  0  0  0  0  0  0  0
    0.9705  -52.6940  -28.3531 C   0  0  0  0  0  0  0  0  0  0  0  0
    5.5490  -48.6081  -21.3380 C   0  0  0  0  0  0  0  0  0  0  0  0
    4.7247  -47.4978  -22.0179 C   0  0  0  0  0  0  0  0  0  0  0  0
    4.0209  -46.7404  -20.9143 C   0  0  0  0  0  0  0  0  0  0  0  0
    4.9567  -45.8481  -20.3015 N   0  0  0  0  0  0  0  0  0  0  0  0
    6.2407  -46.4798  -20.1726 C   0  0  0  0  0  0  0  0  0  0  0  0
    6.1260  -47.9907  -20.0775 C   0  0  0  0  0  0  0  0  0  0  0  0
    4.9900  -44.3332  -21.0976 S   0  0  0  0  0  0  0  0  0  0  0  0
    6.3112  -43.6019  -20.8940 O   0  0  0  0  0  0  0  0  0  0  0  0
    3.8549  -43.4497  -20.6173 O   0  0  0  0  0  0  0  0  0  0  0  0
    4.8259  -44.5877  -22.8126 C   0  0  0  0  0  0  0  0  0  0  0  0
    5.9466  -44.5372  -23.6016 C   0  0  0  0  0  0  0  0  0  0  0  0
    5.8324  -44.7329  -24.9566 C   0  0  0  0  0  0  0  0  0  0  0  0
    4.5935  -44.9777  -25.5063 C   0  0  0  0  0  0  0  0  0  0  0  0
    4.4781  -45.1726  -26.8651 C   0  0  0  0  0  0  0  0  0  0  0  0
    3.2308  -45.4190  -27.4320 C   0  0  0  0  0  0  0  0  0  0  0  0
    2.1046  -45.4681  -26.6265 C   0  0  0  0  0  0  0  0  0  0  0  0
    2.2407  -45.2702  -25.2675 C   0  0  0  0  0  0  0  0  0  0  0  0
    3.4721  -45.0273  -24.7123 C   0  0  0  0  0  0  0  0  0  0  0  0
    3.5963  -44.8281  -23.3399 C   0  0  0  0  0  0  0  0  0  0  0  0
    3.1895  -49.0844  -23.9174 C   0  0  0  0  0  0  0  0  0  0  0  0
    3.5770  -48.7334  -25.3422 C   0  0  0  0  0  0  0  0  0  0  0  0
  9  1  1  0  0  0
  1  2  1  0  0  0
  2  3  1  0  0  0
  3  4  1  0  0  0
  4  5  1  0  0  0
  5  6  2  0  0  0
  5 19  1  0  0  0
 19 20  1  0  0  0
 20 21  1  0  0  0
 21 22  1  0  0  0
 22 25  1  0  0  0
 25 26  2  0  0  0
 25 27  2  0  0  0
 25 28  1  0  0  0
 28 29  2  0  0  0
 29 30  1  0  0  0
 30 31  2  0  0  0
 31 32  1  0  0  0
 32 33  2  0  0  0
 33 34  1  0  0  0
 34 35  2  0  0  0
 35 36  1  0  0  0
 36 37  2  0  0  0
 22 23  1  0  0  0
 23 24  1  0  0  0
  4  7  1  0  0  0
  7 38  1  0  0  0
 38 39  1  0  0  0
  7  8  1  0  0  0
  9 10  2  0  0  0
 10 11  1  0  0  0
 11 12  2  0  0  0
 12 13  1  0  0  0
 13 14  2  0  0  0
 12 15  1  0  0  0
 15 16  2  0  0  0
 16 17  1  0  0  0
 17 18  2  0  0  0
 14  9  1  0  0  0
  8  1  1  0  0  0
 18 11  1  0  0  0
 24 19  1  0  0  0
 37 28  1  0  0  0
 36 31  1  0  0  0
M  END
> <minimizedAffinity>
-8.01056

> <CNNscore>
0.0868119821

> <CNNaffinity>
6.4197664261

> <CNN_VS>
0.5573126674

> <CNNaffinity_variance>
0.2370099276

$$$$
[H]c1c([H])c([H])c2c([H])nc(N3C([H])([H])C([H])([H])N(C(=O)C4([H])C([H])([H])C([H])([H])N(S(=O)(=O)c5c([H])c([H])c6c([H])c([H])c([H])c([H])c6c5[H])C([H])([H])C4([H])[H])[C@]([H])(C([H])([H])C([H])([H])[H])C3([H])[H])nc2c1[H]


 39 44  0  0  0  0  0  0  0  0999 V2000
    0.7756  -53.1994  -23.5322 N   0  0  0  0  0  0  0  0  0  0  0  0
   -0.3229  -53.6876  -22.7297 C   0  0  0  0  0  0  0  0  0  0  0  0
    0.1624  -53.8340  -21.3277 C   0  0  0  0  0  0  0  0  0  0  0  0
    0.7514  -52.5841  -20.8412 N   0  0  0  0  0  0  0  0  0  0  0  0
    0.4739  -52.1683  -19.5189 C   0  0  0  0  0  0  0  0  0  0  0  0
   -0.3181  -52.9271  -18.8477 O   0  0  0  0  0  0  0  0  0  0  0  0
    1.5766  -51.8315  -21.7355 C   0  0  0  0  0  0  0  0  0  0  0  0
    1.9958  -52.7333  -22.9106 C   0  0  0  0  0  0  0  0  0  0  0  0
    0.6769  -53.1597  -24.9424 C   0  0  0  0  0  0  0  0  0  0  0  0
   -0.4780  -52.8798  -25.5486 N   0  0  0  0  0  0  0  0  0  0  0  0
   -0.5974  -52.8491  -26.8791 C   0  0  0  0  0  0  0  0  0  0  0  0
    0.5060  -53.1150  -27.6767 C   0  0  0  0  0  0  0  0  0  0  0  0
    1.6827  -53.4001  -27.0133 C   0  0  0  0  0  0  0  0  0  0  0  0
    1.7619  -53.4210  -25.6766 N   0  0  0  0  0  0  0  0  0  0  0  0
    0.4235  -53.0954  -29.0613 C   0  0  0  0  0  0  0  0  0  0  0  0
   -0.7754  -52.8070  -29.6644 C   0  0  0  0  0  0  0  0  0  0  0  0
   -1.8975  -52.5369  -28.9079 C   0  0  0  0  0  0  0  0  0  0  0  0
   -1.7926  -52.5616  -27.5350 C   0  0  0  0  0  0  0  0  0  0  0  0
    1.0046  -50.9692  -18.8585 C   0  0  0  0  0  0  0  0  0  0  0  0
    0.1044  -50.6649  -17.6456 C   0  0  0  0  0  0  0  0  0  0  0  0
    0.5877  -51.5432  -16.5135 C   0  0  0  0  0  0  0  0  0  0  0  0
    1.7650  -50.9575  -15.9492 N   0  0  0  0  0  0  0  0  0  0  0  0
    2.6030  -50.4200  -16.9851 C   0  0  0  0  0  0  0  0  0  0  0  0
    2.4082  -51.1402  -18.3074 C   0  0  0  0  0  0  0  0  0  0  0  0
    1.3769  -49.8474  -14.7055 S   0  0  0  0  0  0  0  0  0  0  0  0
    1.4527  -48.4006  -15.1775 O   0  0  0  0  0  0  0  0  0  0  0  0
    2.2997  -50.0301  -13.5161 O   0  0  0  0  0  0  0  0  0  0  0  0
   -0.2669  -50.1150  -14.1962 C   0  0  0  0  0  0  0  0  0  0  0  0
   -0.5087  -50.9823  -13.1617 C   0  0  0  0  0  0  0  0  0  0  0  0
   -1.8005  -51.2059  -12.7509 C   0  0  0  0  0  0  0  0  0  0  0  0
   -2.8372  -50.5558  -13.3832 C   0  0  0  0  0  0  0  0  0  0  0  0
   -4.1328  -50.7807  -12.9727 C   0  0  0  0  0  0  0  0  0  0  0  0
   -5.1888  -50.1306  -13.6054 C   0  0  0  0  0  0  0  0  0  0  0  0
   -4.9342  -49.2561  -14.6495 C   0  0  0  0  0  0  0  0  0  0  0  0
   -3.6294  -49.0442  -15.0462 C   0  0  0  0  0  0  0  0  0  0  0  0
   -2.5911  -49.6871  -14.4200 C   0  0  0  0  0  0  0  0  0  0  0  0
   -1.2790  -49.4659  -14.8303 C   0  0  0  0  0  0  0  0  0  0  0  0
    0.8707  -50.6573  -22.3702 C   0  0  0  0  0  0  0  0  0  0  0  0
    1.7108  -49.4198  -22.1125 C   0  0  0  0  0  0  0  0  0  0  0  0
  9  1  1  0  0  0
  1  2  1  0  0  0
  2  3  1  0  0  0
  3  4  1  0  0  0
  4  5  1  0  0  0
  5  6  2  0  0  0
  5 19  1  0  0  0
 19 20  1  0  0  0
 20 21  1  0  0  0
 21 22  1  0  0  0
 22 25  1  0  0  0
 25 26  2  0  0  0
 25 27  2  0  0  0
 25 28  1  0  0  0
 28 29  2  0  0  0
 29 30  1  0  0  0
 30 31  2  0  0  0
 31 32  1  0  0  0
 32 33  2  0  0  0
 33 34  1  0  0  0
 34 35  2  0  0  0
 35 36  1  0  0  0
 36 37  2  0  0  0
 22 23  1  0  0  0
 23 24  1  0  0  0
  4  7  1  0  0  0
  7 38  1  0  0  0
 38 39  1  0  0  0
  7  8  1  0  0  0
  9 10  2  0  0  0
 10 11  1  0  0  0
 11 12  2  0  0  0
 12 13  1  0  0  0
 13 14  2  0  0  0
 12 15  1  0  0  0
 15 16  2  0  0  0
 16 17  1  0  0  0
 17 18  2  0  0  0
 14  9  1  0  0  0
  8  1  1  0  0  0
 18 11  1  0  0  0
 24 19  1  0  0  0
 37 28  1  0  0  0
 36 31  1  0  0  0
M  END
> <minimizedAffinity>
-9.06972

> <CNNscore>
0.0834455788

> <CNNaffinity>
6.6553053856

> <CNN_VS>
0.5553557873

> <CNNaffinity_variance>
0.2241081744

$$$$
[H]c1c([H])c([H])c2c(c1[H])c1c3c(c4c5c([H])c([H])c([H])c([H])c5n5c4c1n2[C@]1([H])O[C@]5(C([H])([H])[H])[C@]([H])(OC([H])([H])[H])[C@]([H])(N([H])C([H])([H])[H])C1([H])[H])C([H])([H])N([H])C3=O


 37 44  0  0  0  0  0  0  0  0999 V2000
    2.6720  -47.6547  -20.0143 C   0  0  0  0  0  0  0  0  0  0  0  0
    2.0006  -48.7823  -19.1612 C   0  0  0  0  0  0  0  0  0  0  0  0
    1.7644  -49.7347  -20.1276 C   0  0  0  0  0  0  0  0  0  0  0  0
    3.0134  -50.0211  -20.6591 O   0  0  0  0  0  0  0  0  0  0  0  0
    3.0862  -49.3074  -21.8973 C   0  0  0  0  0  0  0  0  0  0  0  0
    4.6114  -49.3567  -22.1595 C   0  0  0  0  0  0  0  0  0  0  0  0
    2.6336  -47.9797  -21.5312 C   0  0  0  0  0  0  0  0  0  0  0  0
    2.3983  -50.1510  -22.8477 N   0  0  0  0  0  0  0  0  0  0  0  0
    2.6482  -50.2311  -24.1803 C   0  0  0  0  0  0  0  0  0  0  0  0
    3.4451  -49.5050  -25.0073 C   0  0  0  0  0  0  0  0  0  0  0  0
    3.5302  -49.7774  -26.3859 C   0  0  0  0  0  0  0  0  0  0  0  0
    2.7888  -50.8065  -26.9242 C   0  0  0  0  0  0  0  0  0  0  0  0
    1.9632  -51.5678  -26.1068 C   0  0  0  0  0  0  0  0  0  0  0  0
    1.9223  -51.2527  -24.7651 C   0  0  0  0  0  0  0  0  0  0  0  0
    1.1957  -51.8222  -23.7717 C   0  0  0  0  0  0  0  0  0  0  0  0
    0.3011  -52.8875  -23.6616 C   0  0  0  0  0  0  0  0  0  0  0  0
   -0.1660  -53.7733  -24.7591 C   0  0  0  0  0  0  0  0  0  0  0  0
   -1.0697  -54.6936  -24.1127 N   0  0  0  0  0  0  0  0  0  0  0  0
   -1.1575  -54.4001  -22.7007 C   0  0  0  0  0  0  0  0  0  0  0  0
   -1.8876  -55.0839  -21.9620 O   0  0  0  0  0  0  0  0  0  0  0  0
   -0.2867  -53.2691  -22.4711 C   0  0  0  0  0  0  0  0  0  0  0  0
    0.0075  -52.5709  -21.3113 C   0  0  0  0  0  0  0  0  0  0  0  0
   -0.4057  -52.6153  -20.0104 C   0  0  0  0  0  0  0  0  0  0  0  0
   -1.2456  -53.4136  -19.3067 C   0  0  0  0  0  0  0  0  0  0  0  0
   -1.4358  -53.1524  -17.9446 C   0  0  0  0  0  0  0  0  0  0  0  0
   -0.7877  -52.1095  -17.3243 C   0  0  0  0  0  0  0  0  0  0  0  0
    0.0701  -51.2916  -18.0348 C   0  0  0  0  0  0  0  0  0  0  0  0
    0.2444  -51.5682  -19.3852 C   0  0  0  0  0  0  0  0  0  0  0  0
    1.0136  -50.9127  -20.2320 N   0  0  0  0  0  0  0  0  0  0  0  0
    0.8885  -51.5267  -21.4389 C   0  0  0  0  0  0  0  0  0  0  0  0
    1.4901  -51.1497  -22.6504 C   0  0  0  0  0  0  0  0  0  0  0  0
   -1.5690  -55.4469  -24.6196 H   0  0  0  0  0  0  0  0  0  0  0  0
    4.1586  -47.7110  -18.1946 C   0  0  0  0  0  0  0  0  0  0  0  0
    3.9926  -47.3738  -19.5770 N   0  0  0  0  0  0  0  0  0  0  0  0
    4.3276  -46.4465  -19.8256 H   0  0  0  0  0  0  0  0  0  0  0  0
    3.6145  -47.0583  -22.0124 O   0  0  0  0  0  0  0  0  0  0  0  0
    3.0951  -46.1669  -22.9186 C   0  0  0  0  0  0  0  0  0  0  0  0
 33 34  1  0  0  0
 34  1  1  0  0  0
  1  2  1  0  0  0
  2  3  1  0  0  0
  3  4  1  0  0  0
  4  5  1  0  0  0
  5  6  1  0  0  0
  5  7  1  0  0  0
  7 36  1  0  0  0
 36 37  1  0  0  0
  5  8  1  0  0  0
  8  9  1  0  0  0
  9 10  2  0  0  0
 10 11  1  0  0  0
 11 12  2  0  0  0
 12 13  1  0  0  0
 13 14  2  0  0  0
 14 15  1  0  0  0
 15 16  2  0  0  0
 16 17  1  0  0  0
 17 18  1  0  0  0
 18 19  1  0  0  0
 19 20  2  0  0  0
 19 21  1  0  0  0
 21 22  2  0  0  0
 22 23  1  0  0  0
 23 24  2  0  0  0
 24 25  1  0  0  0
 25 26  2  0  0  0
 26 27  1  0  0  0
 27 28  2  0  0  0
 28 29  1  0  0  0
 29 30  1  0  0  0
 30 31  2  0  0  0
  7  1  1  0  0  0
 31  8  1  0  0  0
 29  3  1  0  0  0
 14  9  1  0  0  0
 31 15  1  0  0  0
 21 16  1  0  0  0
 30 22  1  0  0  0
 28 23  1  0  0  0
 34 35  1  0  0  0
 18 32  1  0  0  0
M  END
> <minimizedAffinity>
-10.07343

> <CNNscore>
0.7999740243

> <CNNaffinity>
6.9466843605

> <CNN_VS>
5.5571670532

> <CNNaffinity_variance>
0.0566854179

$$$$
[H]c1c([H])c([H])c2c(c1[H])c1c3c(c4c5c([H])c([H])c([H])c([H])c5n5c4c1n2[C@]1([H])O[C@]5(C([H])([H])[H])[C@]([H])(OC([H])([H])[H])[C@]([H])(N([H])C([H])([H])[H])C1([H])[H])C([H])([H])N([H])C3=O


 37 44  0  0  0  0  0  0  0  0999 V2000
    4.6715  -49.1750  -24.2812 C   0  0  0  0  0  0  0  0  0  0  0  0
    3.7105  -50.0754  -25.1272 C   0  0  0  0  0  0  0  0  0  0  0  0
    2.8038  -50.4640  -24.1662 C   0  0  0  0  0  0  0  0  0  0  0  0
    2.2721  -49.2794  -23.6776 O   0  0  0  0  0  0  0  0  0  0  0  0
    2.9353  -49.0352  -22.4333 C   0  0  0  0  0  0  0  0  0  0  0  0
    2.5881  -47.5416  -22.2194 C   0  0  0  0  0  0  0  0  0  0  0  0
    4.3320  -49.2328  -22.7681 C   0  0  0  0  0  0  0  0  0  0  0  0
    2.2227  -49.8461  -21.4726 N   0  0  0  0  0  0  0  0  0  0  0  0
    2.0713  -49.5791  -20.1497 C   0  0  0  0  0  0  0  0  0  0  0  0
    2.6147  -48.6339  -19.3387 C   0  0  0  0  0  0  0  0  0  0  0  0
    2.3054  -48.5642  -17.9670 C   0  0  0  0  0  0  0  0  0  0  0  0
    1.4288  -49.4752  -17.4190 C   0  0  0  0  0  0  0  0  0  0  0  0
    0.8562  -50.4550  -18.2199 C   0  0  0  0  0  0  0  0  0  0  0  0
    1.1981  -50.4719  -19.5555 C   0  0  0  0  0  0  0  0  0  0  0  0
    0.7979  -51.3226  -20.5330 C   0  0  0  0  0  0  0  0  0  0  0  0
   -0.0727  -52.4089  -20.6287 C   0  0  0  0  0  0  0  0  0  0  0  0
   -0.8720  -53.0074  -19.5285 C   0  0  0  0  0  0  0  0  0  0  0  0
   -1.5886  -54.0897  -20.1581 N   0  0  0  0  0  0  0  0  0  0  0  0
   -1.2576  -54.1589  -21.5629 C   0  0  0  0  0  0  0  0  0  0  0  0
   -1.7740  -55.0278  -22.2870 O   0  0  0  0  0  0  0  0  0  0  0  0
   -0.3117  -53.0927  -21.8050 C   0  0  0  0  0  0  0  0  0  0  0  0
    0.3381  -52.7019  -22.9645 C   0  0  0  0  0  0  0  0  0  0  0  0
    0.3983  -53.1522  -24.2523 C   0  0  0  0  0  0  0  0  0  0  0  0
   -0.2099  -54.1501  -24.9396 C   0  0  0  0  0  0  0  0  0  0  0  0
    0.1083  -54.3245  -26.2917 C   0  0  0  0  0  0  0  0  0  0  0  0
    1.0180  -53.5047  -26.9185 C   0  0  0  0  0  0  0  0  0  0  0  0
    1.6418  -52.4854  -26.2248 C   0  0  0  0  0  0  0  0  0  0  0  0
    1.3118  -52.3300  -24.8840 C   0  0  0  0  0  0  0  0  0  0  0  0
    1.7909  -51.4251  -24.0534 N   0  0  0  0  0  0  0  0  0  0  0  0
    1.1903  -51.6324  -22.8511 C   0  0  0  0  0  0  0  0  0  0  0  0
    1.4217  -50.9355  -21.6543 C   0  0  0  0  0  0  0  0  0  0  0  0
   -2.2408  -54.7107  -19.6456 H   0  0  0  0  0  0  0  0  0  0  0  0
    5.8461  -47.6122  -25.5859 C   0  0  0  0  0  0  0  0  0  0  0  0
    4.7006  -47.8379  -24.7558 N   0  0  0  0  0  0  0  0  0  0  0  0
    4.5599  -47.1346  -24.0349 H   0  0  0  0  0  0  0  0  0  0  0  0
    5.0379  -48.0792  -22.3060 O   0  0  0  0  0  0  0  0  0  0  0  0
    5.9519  -48.3822  -21.3270 C   0  0  0  0  0  0  0  0  0  0  0  0
 33 34  1  0  0  0
 34  1  1  0  0  0
  1  2  1  0  0  0
  2  3  1  0  0  0
  3  4  1  0  0  0
  4  5  1  0  0  0
  5  6  1  0  0  0
  5  7  1  0  0  0
  7 36  1  0  0  0
 36 37  1  0  0  0
  5  8  1  0  0  0
  8  9  1  0  0  0
  9 10  2  0  0  0
 10 11  1  0  0  0
 11 12  2  0  0  0
 12 13  1  0  0  0
 13 14  2  0  0  0
 14 15  1  0  0  0
 15 16  2  0  0  0
 16 17  1  0  0  0
 17 18  1  0  0  0
 18 19  1  0  0  0
 19 20  2  0  0  0
 19 21  1  0  0  0
 21 22  2  0  0  0
 22 23  1  0  0  0
 23 24  2  0  0  0
 24 25  1  0  0  0
 25 26  2  0  0  0
 26 27  1  0  0  0
 27 28  2  0  0  0
 28 29  1  0  0  0
 29 30  1  0  0  0
 30 31  2  0  0  0
  7  1  1  0  0  0
 31  8  1  0  0  0
 29  3  1  0  0  0
 14  9  1  0  0  0
 31 15  1  0  0  0
 21 16  1  0  0  0
 30 22  1  0  0  0
 28 23  1  0  0  0
 34 35  1  0  0  0
 18 32  1  0  0  0
M  END
> <minimizedAffinity>
-10.03708

> <CNNscore>
0.6927077770

> <CNNaffinity>
6.9024248123

> <CNN_VS>
4.7813634872

> <CNNaffinity_variance>
0.1397202611

$$$$
[H]c1c([H])c([H])c2c(c1[H])c1c3c(c4c5c([H])c([H])c([H])c([H])c5n5c4c1n2[C@]1([H])O[C@]5(C([H])([H])[H])[C@]([H])(OC([H])([H])[H])[C@]([H])(N([H])C([H])([H])[H])C1([H])[H])C([H])([H])N([H])C3=O


 37 44  0  0  0  0  0  0  0  0999 V2000
    3.7033  -47.9851  -23.2912 C   0  0  0  0  0  0  0  0  0  0  0  0
    3.2419  -48.4915  -21.8839 C   0  0  0  0  0  0  0  0  0  0  0  0
    2.6377  -49.6825  -22.2205 C   0  0  0  0  0  0  0  0  0  0  0  0
    3.6298  -50.4206  -22.8495 O   0  0  0  0  0  0  0  0  0  0  0  0
    3.3703  -50.3118  -24.2525 C   0  0  0  0  0  0  0  0  0  0  0  0
    4.7273  -50.7879  -24.8260 C   0  0  0  0  0  0  0  0  0  0  0  0
    3.1658  -48.8880  -24.4331 C   0  0  0  0  0  0  0  0  0  0  0  0
    2.3526  -51.3036  -24.5151 N   0  0  0  0  0  0  0  0  0  0  0  0
    2.1656  -51.9750  -25.6808 C   0  0  0  0  0  0  0  0  0  0  0  0
    2.7209  -51.8405  -26.9136 C   0  0  0  0  0  0  0  0  0  0  0  0
    2.3479  -52.6664  -27.9911 C   0  0  0  0  0  0  0  0  0  0  0  0
    1.3931  -53.6419  -27.8032 C   0  0  0  0  0  0  0  0  0  0  0  0
    0.8049  -53.8055  -26.5556 C   0  0  0  0  0  0  0  0  0  0  0  0
    1.2118  -52.9665  -25.5399 C   0  0  0  0  0  0  0  0  0  0  0  0
    0.7880  -52.9087  -24.2530 C   0  0  0  0  0  0  0  0  0  0  0  0
   -0.1118  -53.6175  -23.4560 C   0  0  0  0  0  0  0  0  0  0  0  0
   -0.9700  -54.7541  -23.8791 C   0  0  0  0  0  0  0  0  0  0  0  0
   -1.6987  -55.1122  -22.6865 N   0  0  0  0  0  0  0  0  0  0  0  0
   -1.3161  -54.2534  -21.5894 C   0  0  0  0  0  0  0  0  0  0  0  0
   -1.8322  -54.4009  -20.4678 O   0  0  0  0  0  0  0  0  0  0  0  0
   -0.3271  -53.3418  -22.1196 C   0  0  0  0  0  0  0  0  0  0  0  0
    0.3715  -52.3091  -21.5156 C   0  0  0  0  0  0  0  0  0  0  0  0
    0.3837  -51.7263  -20.2807 C   0  0  0  0  0  0  0  0  0  0  0  0
   -0.2567  -51.9662  -19.1101 C   0  0  0  0  0  0  0  0  0  0  0  0
    0.0109  -51.1348  -18.0161 C   0  0  0  0  0  0  0  0  0  0  0  0
    0.9040  -50.0934  -18.1174 C   0  0  0  0  0  0  0  0  0  0  0  0
    1.5608  -49.8427  -19.3070 C   0  0  0  0  0  0  0  0  0  0  0  0
    1.2806  -50.6796  -20.3801 C   0  0  0  0  0  0  0  0  0  0  0  0
    1.7976  -50.6099  -21.5910 N   0  0  0  0  0  0  0  0  0  0  0  0
    1.2513  -51.6233  -22.3147 C   0  0  0  0  0  0  0  0  0  0  0  0
    1.4726  -51.9146  -23.6704 C   0  0  0  0  0  0  0  0  0  0  0  0
   -2.3918  -55.8819  -22.6562 H   0  0  0  0  0  0  0  0  0  0  0  0
    5.6611  -47.4866  -22.0900 C   0  0  0  0  0  0  0  0  0  0  0  0
    5.1128  -47.8376  -23.3660 N   0  0  0  0  0  0  0  0  0  0  0  0
    5.4324  -47.2537  -24.1348 H   0  0  0  0  0  0  0  0  0  0  0  0
    4.0193  -48.4775  -25.5035 O   0  0  0  0  0  0  0  0  0  0  0  0
    3.3201  -47.9239  -26.5477 C   0  0  0  0  0  0  0  0  0  0  0  0
 33 34  1  0  0  0
 34  1  1  0  0  0
  1  2  1  0  0  0
  2  3  1  0  0  0
  3  4  1  0  0  0
  4  5  1  0  0  0
  5  6  1  0  0  0
  5  7  1  0  0  0
  7 36  1  0  0  0
 36 37  1  0  0  0
  5  8  1  0  0  0
  8  9  1  0  0  0
  9 10  2  0  0  0
 10 11  1  0  0  0
 11 12  2  0  0  0
 12 13  1  0  0  0
 13 14  2  0  0  0
 14 15  1  0  0  0
 15 16  2  0  0  0
 16 17  1  0  0  0
 17 18  1  0  0  0
 18 19  1  0  0  0
 19 20  2  0  0  0
 19 21  1  0  0  0
 21 22  2  0  0  0
 22 23  1  0  0  0
 23 24  2  0  0  0
 24 25  1  0  0  0
 25 26  2  0  0  0
 26 27  1  0  0  0
 27 28  2  0  0  0
 28 29  1  0  0  0
 29 30  1  0  0  0
 30 31  2  0  0  0
  7  1  1  0  0  0
 31  8  1  0  0  0
 29  3  1  0  0  0
 14  9  1  0  0  0
 31 15  1  0  0  0
 21 16  1  0  0  0
 30 22  1  0  0  0
 28 23  1  0  0  0
 34 35  1  0  0  0
 18 32  1  0  0  0
M  END
> <minimizedAffinity>
-10.15129

> <CNNscore>
0.5790693760

> <CNNaffinity>
6.8294730186

> <CNN_VS>
3.9547386169

> <CNNaffinity_variance>
0.3197625875

$$$$
[H]c1c([H])c([H])c2c(c1[H])c1c3c(c4c5c([H])c([H])c([H])c([H])c5n5c4c1n2[C@]1([H])O[C@]5(C([H])([H])[H])[C@]([H])(OC([H])([H])[H])[C@]([H])(N([H])C([H])([H])[H])C1([H])[H])C([H])([H])N([H])C3=O


 37 44  0  0  0  0  0  0  0  0999 V2000
    4.4632  -48.8363  -22.1779 C   0  0  0  0  0  0  0  0  0  0  0  0
    4.0384  -49.3573  -23.5914 C   0  0  0  0  0  0  0  0  0  0  0  0
    2.9713  -50.1634  -23.2623 C   0  0  0  0  0  0  0  0  0  0  0  0
    2.0753  -49.3235  -22.6170 O   0  0  0  0  0  0  0  0  0  0  0  0
    2.2332  -49.5812  -21.2183 C   0  0  0  0  0  0  0  0  0  0  0  0
    1.5319  -48.3357  -20.6233 C   0  0  0  0  0  0  0  0  0  0  0  0
    3.6717  -49.5389  -21.0430 C   0  0  0  0  0  0  0  0  0  0  0  0
    1.4335  -50.7590  -20.9700 N   0  0  0  0  0  0  0  0  0  0  0  0
    0.8094  -51.0767  -19.8064 C   0  0  0  0  0  0  0  0  0  0  0  0
    0.8509  -50.5250  -18.5653 C   0  0  0  0  0  0  0  0  0  0  0  0
    0.1065  -51.0513  -17.4924 C   0  0  0  0  0  0  0  0  0  0  0  0
   -0.6899  -52.1576  -17.6935 C   0  0  0  0  0  0  0  0  0  0  0  0
   -0.7544  -52.7465  -18.9498 C   0  0  0  0  0  0  0  0  0  0  0  0
   -0.0026  -52.1855  -19.9604 C   0  0  0  0  0  0  0  0  0  0  0  0
    0.1223  -52.5736  -21.2538 C   0  0  0  0  0  0  0  0  0  0  0  0
   -0.4235  -53.5705  -22.0635 C   0  0  0  0  0  0  0  0  0  0  0  0
   -1.3927  -54.6187  -21.6520 C   0  0  0  0  0  0  0  0  0  0  0  0
   -1.6243  -55.3805  -22.8551 N   0  0  0  0  0  0  0  0  0  0  0  0
   -0.8492  -54.8387  -23.9475 C   0  0  0  0  0  0  0  0  0  0  0  0
   -0.9099  -55.3558  -25.0767 O   0  0  0  0  0  0  0  0  0  0  0  0
   -0.1203  -53.7149  -23.4035 C   0  0  0  0  0  0  0  0  0  0  0  0
    0.7735  -52.8392  -23.9982 C   0  0  0  0  0  0  0  0  0  0  0  0
    1.3403  -52.7079  -25.2336 C   0  0  0  0  0  0  0  0  0  0  0  0
    1.2099  -53.3626  -26.4136 C   0  0  0  0  0  0  0  0  0  0  0  0
    1.9780  -52.9389  -27.5046 C   0  0  0  0  0  0  0  0  0  0  0  0
    2.8495  -51.8807  -27.3911 C   0  0  0  0  0  0  0  0  0  0  0  0
    2.9878  -51.2082  -26.1919 C   0  0  0  0  0  0  0  0  0  0  0  0
    2.2164  -51.6450  -25.1220 C   0  0  0  0  0  0  0  0  0  0  0  0
    2.2006  -51.1419  -23.9034 N   0  0  0  0  0  0  0  0  0  0  0  0
    1.3000  -51.8660  -23.1866 C   0  0  0  0  0  0  0  0  0  0  0  0
    0.9804  -51.7187  -21.8273 C   0  0  0  0  0  0  0  0  0  0  0  0
   -2.2627  -56.1958  -22.8950 H   0  0  0  0  0  0  0  0  0  0  0  0
    4.5213  -46.8092  -23.3660 C   0  0  0  0  0  0  0  0  0  0  0  0
    4.3649  -47.4238  -22.0816 N   0  0  0  0  0  0  0  0  0  0  0  0
    4.9370  -47.0134  -21.3478 H   0  0  0  0  0  0  0  0  0  0  0  0
    3.9327  -48.6433  -19.9602 O   0  0  0  0  0  0  0  0  0  0  0  0
    4.6031  -49.2517  -18.9278 C   0  0  0  0  0  0  0  0  0  0  0  0
 33 34  1  0  0  0
 34  1  1  0  0  0
  1  2  1  0  0  0
  2  3  1  0  0  0
  3  4  1  0  0  0
  4  5  1  0  0  0
  5  6  1  0  0  0
  5  7  1  0  0  0
  7 36  1  0  0  0
 36 37  1  0  0  0
  5  8  1  0  0  0
  8  9  1  0  0  0
  9 10  2  0  0  0
 10 11  1  0  0  0
 11 12  2  0  0  0
 12 13  1  0  0  0
 13 14  2  0  0  0
 14 15  1  0  0  0
 15 16  2  0  0  0
 16 17  1  0  0  0
 17 18  1  0  0  0
 18 19  1  0  0  0
 19 20  2  0  0  0
 19 21  1  0  0  0
 21 22  2  0  0  0
 22 23  1  0  0  0
 23 24  2  0  0  0
 24 25  1  0  0  0
 25 26  2  0  0  0
 26 27  1  0  0  0
 27 28  2  0  0  0
 28 29  1  0  0  0
 29 30  1  0  0  0
 30 31  2  0  0  0
  7  1  1  0  0  0
 31  8  1  0  0  0
 29  3  1  0  0  0
 14  9  1  0  0  0
 31 15  1  0  0  0
 21 16  1  0  0  0
 30 22  1  0  0  0
 28 23  1  0  0  0
 34 35  1  0  0  0
 18 32  1  0  0  0
M  END
> <minimizedAffinity>
-10.53459

> <CNNscore>
0.4366982579

> <CNNaffinity>
6.7331862450

> <CNN_VS>
2.9403707981

> <CNNaffinity_variance>
0.1792204082

$$$$
[H]c1c([H])c([H])c2c(c1[H])c1c3c(c4c5c([H])c([H])c([H])c([H])c5n5c4c1n2[C@]1([H])O[C@]5(C([H])([H])[H])[C@]([H])(OC([H])([H])[H])[C@]([H])(N([H])C([H])([H])[H])C1([H])[H])C([H])([H])N([H])C3=O


 37 44  0  0  0  0  0  0  0  0999 V2000
    4.8179  -49.0284  -23.5479 C   0  0  0  0  0  0  0  0  0  0  0  0
    4.1489  -49.7373  -24.7727 C   0  0  0  0  0  0  0  0  0  0  0  0
    3.0932  -50.3751  -24.1601 C   0  0  0  0  0  0  0  0  0  0  0  0
    2.3639  -49.3601  -23.5580 O   0  0  0  0  0  0  0  0  0  0  0  0
    2.7154  -49.3934  -22.1713 C   0  0  0  0  0  0  0  0  0  0  0  0
    2.1975  -48.0066  -21.7177 C   0  0  0  0  0  0  0  0  0  0  0  0
    4.1634  -49.4551  -22.2072 C   0  0  0  0  0  0  0  0  0  0  0  0
    1.8863  -50.4342  -21.6078 N   0  0  0  0  0  0  0  0  0  0  0  0
    1.4269  -50.4937  -20.3311 C   0  0  0  0  0  0  0  0  0  0  0  0
    1.6937  -49.7482  -19.2267 C   0  0  0  0  0  0  0  0  0  0  0  0
    1.0880  -50.0167  -17.9845 C   0  0  0  0  0  0  0  0  0  0  0  0
    0.1983  -51.0628  -17.8720 C   0  0  0  0  0  0  0  0  0  0  0  0
   -0.0959  -51.8453  -18.9813 C   0  0  0  0  0  0  0  0  0  0  0  0
    0.5289  -51.5330  -20.1701 C   0  0  0  0  0  0  0  0  0  0  0  0
    0.4292  -52.1421  -21.3777 C   0  0  0  0  0  0  0  0  0  0  0  0
   -0.2987  -53.2058  -21.9123 C   0  0  0  0  0  0  0  0  0  0  0  0
   -1.2616  -54.0765  -21.1896 C   0  0  0  0  0  0  0  0  0  0  0  0
   -1.7239  -55.0044  -22.1930 N   0  0  0  0  0  0  0  0  0  0  0  0
   -1.0900  -54.7268  -23.4613 C   0  0  0  0  0  0  0  0  0  0  0  0
   -1.3562  -55.4179  -24.4602 O   0  0  0  0  0  0  0  0  0  0  0  0
   -0.2134  -53.5999  -23.2336 C   0  0  0  0  0  0  0  0  0  0  0  0
    0.6356  -52.9223  -24.0934 C   0  0  0  0  0  0  0  0  0  0  0  0
    1.0151  -53.0524  -25.3987 C   0  0  0  0  0  0  0  0  0  0  0  0
    0.6632  -53.8806  -26.4127 C   0  0  0  0  0  0  0  0  0  0  0  0
    1.2825  -53.7181  -27.6576 C   0  0  0  0  0  0  0  0  0  0  0  0
    2.2297  -52.7407  -27.8572 C   0  0  0  0  0  0  0  0  0  0  0  0
    2.5935  -51.8926  -26.8287 C   0  0  0  0  0  0  0  0  0  0  0  0
    1.9668  -52.0712  -25.6016 C   0  0  0  0  0  0  0  0  0  0  0  0
    2.1703  -51.3718  -24.5026 N   0  0  0  0  0  0  0  0  0  0  0  0
    1.3433  -51.8797  -23.5501 C   0  0  0  0  0  0  0  0  0  0  0  0
    1.2450  -51.4780  -22.2082 C   0  0  0  0  0  0  0  0  0  0  0  0
   -2.4138  -55.7524  -21.9974 H   0  0  0  0  0  0  0  0  0  0  0  0
    4.8939  -47.2433  -25.0750 C   0  0  0  0  0  0  0  0  0  0  0  0
    4.8297  -47.6167  -23.6935 N   0  0  0  0  0  0  0  0  0  0  0  0
    5.5027  -47.1401  -23.0986 H   0  0  0  0  0  0  0  0  0  0  0  0
    4.6454  -48.4188  -21.3490 O   0  0  0  0  0  0  0  0  0  0  0  0
    5.4264  -48.9045  -20.3294 C   0  0  0  0  0  0  0  0  0  0  0  0
 33 34  1  0  0  0
 34  1  1  0  0  0
  1  2  1  0  0  0
  2  3  1  0  0  0
  3  4  1  0  0  0
  4  5  1  0  0  0
  5  6  1  0  0  0
  5  7  1  0  0  0
  7 36  1  0  0  0
 36 37  1  0  0  0
  5  8  1  0  0  0
  8  9  1  0  0  0
  9 10  2  0  0  0
 10 11  1  0  0  0
 11 12  2  0  0  0
 12 13  1  0  0  0
 13 14  2  0  0  0
 14 15  1  0  0  0
 15 16  2  0  0  0
 16 17  1  0  0  0
 17 18  1  0  0  0
 18 19  1  0  0  0
 19 20  2  0  0  0
 19 21  1  0  0  0
 21 22  2  0  0  0
 22 23  1  0  0  0
 23 24  2  0  0  0
 24 25  1  0  0  0
 25 26  2  0  0  0
 26 27  1  0  0  0
 27 28  2  0  0  0
 28 29  1  0  0  0
 29 30  1  0  0  0
 30 31  2  0  0  0
  7  1  1  0  0  0
 31  8  1  0  0  0
 29  3  1  0  0  0
 14  9  1  0  0  0
 31 15  1  0  0  0
 21 16  1  0  0  0
 30 22  1  0  0  0
 28 23  1  0  0  0
 34 35  1  0  0  0
 18 32  1  0  0  0
M  END
> <minimizedAffinity>
-10.11358

> <CNNscore>
0.4135389328

> <CNNaffinity>
6.6500306129

> <CNN_VS>
2.7500464916

> <CNNaffinity_variance>
0.2592639029

$$$$
[H]c1c([H])c([H])c2c(c1[H])c1c3c(c4c5c([H])c([H])c([H])c([H])c5n5c4c1n2[C@]1([H])O[C@]5(C([H])([H])[H])[C@]([H])(OC([H])([H])[H])[C@]([H])(N([H])C([H])([H])[H])C1([H])[H])C([H])([H])N([H])C3=O


 37 44  0  0  0  0  0  0  0  0999 V2000
   -0.9159  -53.8494  -23.3824 C   0  0  0  0  0  0  0  0  0  0  0  0
    0.1748  -53.1738  -24.2790 C   0  0  0  0  0  0  0  0  0  0  0  0
    0.7367  -52.2900  -23.3846 C   0  0  0  0  0  0  0  0  0  0  0  0
    1.1957  -53.0812  -22.3417 O   0  0  0  0  0  0  0  0  0  0  0  0
    0.2255  -52.9559  -21.2973 C   0  0  0  0  0  0  0  0  0  0  0  0
    0.6105  -54.1656  -20.4108 C   0  0  0  0  0  0  0  0  0  0  0  0
   -1.0282  -53.1625  -21.9954 C   0  0  0  0  0  0  0  0  0  0  0  0
    0.5697  -51.7252  -20.6228 N   0  0  0  0  0  0  0  0  0  0  0  0
    0.3570  -51.4396  -19.3122 C   0  0  0  0  0  0  0  0  0  0  0  0
   -0.3214  -52.0916  -18.3318 C   0  0  0  0  0  0  0  0  0  0  0  0
   -0.4124  -51.5793  -17.0237 C   0  0  0  0  0  0  0  0  0  0  0  0
    0.1987  -50.3832  -16.7162 C   0  0  0  0  0  0  0  0  0  0  0  0
    0.8994  -49.6906  -17.6953 C   0  0  0  0  0  0  0  0  0  0  0  0
    0.9530  -50.2431  -18.9574 C   0  0  0  0  0  0  0  0  0  0  0  0
    1.5493  -49.7664  -20.0783 C   0  0  0  0  0  0  0  0  0  0  0  0
    2.3251  -48.6555  -20.4117 C   0  0  0  0  0  0  0  0  0  0  0  0
    2.7286  -47.5487  -19.5064 C   0  0  0  0  0  0  0  0  0  0  0  0
    3.5101  -46.6716  -20.3440 N   0  0  0  0  0  0  0  0  0  0  0  0
    3.5898  -47.2009  -21.6860 C   0  0  0  0  0  0  0  0  0  0  0  0
    4.2234  -46.5903  -22.5646 O   0  0  0  0  0  0  0  0  0  0  0  0
    2.8370  -48.4351  -21.6758 C   0  0  0  0  0  0  0  0  0  0  0  0
    2.5775  -49.3482  -22.6848 C   0  0  0  0  0  0  0  0  0  0  0  0
    2.8532  -49.4373  -24.0193 C   0  0  0  0  0  0  0  0  0  0  0  0
    3.5541  -48.6788  -24.8977 C   0  0  0  0  0  0  0  0  0  0  0  0
    3.6230  -49.0904  -26.2339 C   0  0  0  0  0  0  0  0  0  0  0  0
    2.9958  -50.2396  -26.6561 C   0  0  0  0  0  0  0  0  0  0  0  0
    2.2798  -51.0181  -25.7669 C   0  0  0  0  0  0  0  0  0  0  0  0
    2.2240  -50.5914  -24.4457 C   0  0  0  0  0  0  0  0  0  0  0  0
    1.5984  -51.1875  -23.4499 N   0  0  0  0  0  0  0  0  0  0  0  0
    1.8129  -50.4338  -22.3385 C   0  0  0  0  0  0  0  0  0  0  0  0
    1.3033  -50.6569  -21.0492 C   0  0  0  0  0  0  0  0  0  0  0  0
    3.9392  -45.7936  -19.9994 H   0  0  0  0  0  0  0  0  0  0  0  0
   -0.7932  -55.8990  -24.5263 C   0  0  0  0  0  0  0  0  0  0  0  0
   -0.7057  -55.2470  -23.2537 N   0  0  0  0  0  0  0  0  0  0  0  0
   -1.2536  -55.6869  -22.5186 H   0  0  0  0  0  0  0  0  0  0  0  0
   -1.7461  -54.1655  -21.2734 O   0  0  0  0  0  0  0  0  0  0  0  0
   -2.7208  -53.6325  -20.4662 C   0  0  0  0  0  0  0  0  0  0  0  0
 33 34  1  0  0  0
 34  1  1  0  0  0
  1  2  1  0  0  0
  2  3  1  0  0  0
  3  4  1  0  0  0
  4  5  1  0  0  0
  5  6  1  0  0  0
  5  7  1  0  0  0
  7 36  1  0  0  0
 36 37  1  0  0  0
  5  8  1  0  0  0
  8  9  1  0  0  0
  9 10  2  0  0  0
 10 11  1  0  0  0
 11 12  2  0  0  0
 12 13  1  0  0  0
 13 14  2  0  0  0
 14 15  1  0  0  0
 15 16  2  0  0  0
 16 17  1  0  0  0
 17 18  1  0  0  0
 18 19  1  0  0  0
 19 20  2  0  0  0
 19 21  1  0  0  0
 21 22  2  0  0  0
 22 23  1  0  0  0
 23 24  2  0  0  0
 24 25  1  0  0  0
 25 26  2  0  0  0
 26 27  1  0  0  0
 27 28  2  0  0  0
 28 29  1  0  0  0
 29 30  1  0  0  0
 30 31  2  0  0  0
  7  1  1  0  0  0
 31  8  1  0  0  0
 29  3  1  0  0  0
 14  9  1  0  0  0
 31 15  1  0  0  0
 21 16  1  0  0  0
 30 22  1  0  0  0
 28 23  1  0  0  0
 34 35  1  0  0  0
 18 32  1  0  0  0
M  END
> <minimizedAffinity>
-8.24079

> <CNNscore>
0.3977250457

> <CNNaffinity>
6.7210083008

> <CNN_VS>
2.6731133461

> <CNNaffinity_variance>
0.0768479854

$$$$
[H]c1c([H])c([H])c2c(c1[H])c1c3c(c4c5c([H])c([H])c([H])c([H])c5n5c4c1n2[C@]1([H])O[C@]5(C([H])([H])[H])[C@]([H])(OC([H])([H])[H])[C@]([H])(N([H])C([H])([H])[H])C1([H])[H])C([H])([H])N([H])C3=O


 37 44  0  0  0  0  0  0  0  0999 V2000
    5.0059  -48.7964  -27.0594 C   0  0  0  0  0  0  0  0  0  0  0  0
    3.9664  -49.8517  -27.5654 C   0  0  0  0  0  0  0  0  0  0  0  0
    3.2109  -50.0390  -26.4292 C   0  0  0  0  0  0  0  0  0  0  0  0
    2.7151  -48.7811  -26.1190 O   0  0  0  0  0  0  0  0  0  0  0  0
    3.5336  -48.2882  -25.0537 C   0  0  0  0  0  0  0  0  0  0  0  0
    3.1736  -46.7829  -25.0975 C   0  0  0  0  0  0  0  0  0  0  0  0
    4.8771  -48.5467  -25.5333 C   0  0  0  0  0  0  0  0  0  0  0  0
    2.9830  -48.8889  -23.8603 N   0  0  0  0  0  0  0  0  0  0  0  0
    3.0049  -48.3593  -22.6098 C   0  0  0  0  0  0  0  0  0  0  0  0
    3.6247  -47.2682  -22.0887 C   0  0  0  0  0  0  0  0  0  0  0  0
    3.5028  -46.9224  -20.7294 C   0  0  0  0  0  0  0  0  0  0  0  0
    2.7367  -47.7050  -19.8931 C   0  0  0  0  0  0  0  0  0  0  0  0
    2.0905  -48.8280  -20.3935 C   0  0  0  0  0  0  0  0  0  0  0  0
    2.2480  -49.1149  -21.7329 C   0  0  0  0  0  0  0  0  0  0  0  0
    1.7445  -50.1469  -22.4545 C   0  0  0  0  0  0  0  0  0  0  0  0
    0.9022  -51.2319  -22.2081 C   0  0  0  0  0  0  0  0  0  0  0  0
    0.2784  -51.5963  -20.9099 C   0  0  0  0  0  0  0  0  0  0  0  0
   -0.4842  -52.7854  -21.2036 N   0  0  0  0  0  0  0  0  0  0  0  0
   -0.3453  -53.1374  -22.5980 C   0  0  0  0  0  0  0  0  0  0  0  0
   -0.9288  -54.1362  -23.0540 O   0  0  0  0  0  0  0  0  0  0  0  0
    0.5263  -52.1405  -23.1784 C   0  0  0  0  0  0  0  0  0  0  0  0
    1.0003  -51.9917  -24.4717 C   0  0  0  0  0  0  0  0  0  0  0  0
    0.8985  -52.6938  -25.6385 C   0  0  0  0  0  0  0  0  0  0  0  0
    0.2330  -53.8116  -26.0202 C   0  0  0  0  0  0  0  0  0  0  0  0
    0.3695  -54.2559  -27.3407 C   0  0  0  0  0  0  0  0  0  0  0  0
    1.1603  -53.5785  -28.2396 C   0  0  0  0  0  0  0  0  0  0  0  0
    1.8415  -52.4384  -27.8582 C   0  0  0  0  0  0  0  0  0  0  0  0
    1.6923  -52.0149  -26.5433 C   0  0  0  0  0  0  0  0  0  0  0  0
    2.2523  -50.9594  -25.9860 N   0  0  0  0  0  0  0  0  0  0  0  0
    1.8273  -50.9197  -24.6949 C   0  0  0  0  0  0  0  0  0  0  0  0
    2.1981  -49.9941  -23.7063 C   0  0  0  0  0  0  0  0  0  0  0  0
   -1.0416  -53.2909  -20.4911 H   0  0  0  0  0  0  0  0  0  0  0  0
    3.8161  -47.5963  -28.6930 C   0  0  0  0  0  0  0  0  0  0  0  0
    4.9297  -47.5833  -27.7919 N   0  0  0  0  0  0  0  0  0  0  0  0
    5.8079  -47.2938  -28.2149 H   0  0  0  0  0  0  0  0  0  0  0  0
    5.6040  -47.3219  -25.4148 O   0  0  0  0  0  0  0  0  0  0  0  0
    5.9474  -47.0406  -24.1153 C   0  0  0  0  0  0  0  0  0  0  0  0
 33 34  1  0  0  0
 34  1  1  0  0  0
  1  2  1  0  0  0
  2  3  1  0  0  0
  3  4  1  0  0  0
  4  5  1  0  0  0
  5  6  1  0  0  0
  5  7  1  0  0  0
  7 36  1  0  0  0
 36 37  1  0  0  0
  5  8  1  0  0  0
  8  9  1  0  0  0
  9 10  2  0  0  0
 10 11  1  0  0  0
 11 12  2  0  0  0
 12 13  1  0  0  0
 13 14  2  0  0  0
 14 15  1  0  0  0
 15 16  2  0  0  0
 16 17  1  0  0  0
 17 18  1  0  0  0
 18 19  1  0  0  0
 19 20  2  0  0  0
 19 21  1  0  0  0
 21 22  2  0  0  0
 22 23  1  0  0  0
 23 24  2  0  0  0
 24 25  1  0  0  0
 25 26  2  0  0  0
 26 27  1  0  0  0
 27 28  2  0  0  0
 28 29  1  0  0  0
 29 30  1  0  0  0
 30 31  2  0  0  0
  7  1  1  0  0  0
 31  8  1  0  0  0
 29  3  1  0  0  0
 14  9  1  0  0  0
 31 15  1  0  0  0
 21 16  1  0  0  0
 30 22  1  0  0  0
 28 23  1  0  0  0
 34 35  1  0  0  0
 18 32  1  0  0  0
M  END
> <minimizedAffinity>
-8.29147

> <CNNscore>
0.3414101601

> <CNNaffinity>
6.5204300880

> <CNN_VS>
2.2261409760

> <CNNaffinity_variance>
0.3348312974

$$$$
[H]c1c([H])c([H])c2c(c1[H])c1c3c(c4c5c([H])c([H])c([H])c([H])c5n5c4c1n2[C@]1([H])O[C@]5(C([H])([H])[H])[C@]([H])(OC([H])([H])[H])[C@]([H])(N([H])C([H])([H])[H])C1([H])[H])C([H])([H])N([H])C3=O


 37 44  0  0  0  0  0  0  0  0999 V2000
    0.3431  -53.3775  -19.8624 C   0  0  0  0  0  0  0  0  0  0  0  0
    1.3871  -52.2768  -19.4769 C   0  0  0  0  0  0  0  0  0  0  0  0
    1.6472  -51.7208  -20.7097 C   0  0  0  0  0  0  0  0  0  0  0  0
    0.4160  -51.2734  -21.1663 O   0  0  0  0  0  0  0  0  0  0  0  0
   -0.0331  -52.2529  -22.1080 C   0  0  0  0  0  0  0  0  0  0  0  0
   -1.5323  -51.8792  -22.2072 C   0  0  0  0  0  0  0  0  0  0  0  0
    0.1772  -53.5006  -21.4004 C   0  0  0  0  0  0  0  0  0  0  0  0
    0.6393  -51.9116  -23.3407 N   0  0  0  0  0  0  0  0  0  0  0  0
    0.1768  -52.1356  -24.5979 C   0  0  0  0  0  0  0  0  0  0  0  0
   -0.8952  -52.8246  -25.0694 C   0  0  0  0  0  0  0  0  0  0  0  0
   -1.1661  -52.9263  -26.4472 C   0  0  0  0  0  0  0  0  0  0  0  0
   -0.3275  -52.3149  -27.3535 C   0  0  0  0  0  0  0  0  0  0  0  0
    0.7779  -51.6034  -26.9050 C   0  0  0  0  0  0  0  0  0  0  0  0
    0.9904  -51.5397  -25.5442 C   0  0  0  0  0  0  0  0  0  0  0  0
    1.9909  -50.9319  -24.8594 C   0  0  0  0  0  0  0  0  0  0  0  0
    3.1012  -50.1502  -25.1807 C   0  0  0  0  0  0  0  0  0  0  0  0
    3.5446  -49.7521  -26.5417 C   0  0  0  0  0  0  0  0  0  0  0  0
    4.7289  -48.9606  -26.3123 N   0  0  0  0  0  0  0  0  0  0  0  0
    5.0038  -48.8700  -24.8967 C   0  0  0  0  0  0  0  0  0  0  0  0
    5.9865  -48.2268  -24.4884 O   0  0  0  0  0  0  0  0  0  0  0  0
    3.9631  -49.6261  -24.2368 C   0  0  0  0  0  0  0  0  0  0  0  0
    3.7378  -49.8788  -22.8934 C   0  0  0  0  0  0  0  0  0  0  0  0
    4.3784  -49.5911  -21.7222 C   0  0  0  0  0  0  0  0  0  0  0  0
    5.4852  -48.8802  -21.3941 C   0  0  0  0  0  0  0  0  0  0  0  0
    5.8563  -48.8001  -20.0466 C   0  0  0  0  0  0  0  0  0  0  0  0
    5.1190  -49.4264  -19.0687 C   0  0  0  0  0  0  0  0  0  0  0  0
    3.9896  -50.1526  -19.3952 C   0  0  0  0  0  0  0  0  0  0  0  0
    3.6392  -50.2193  -20.7381 C   0  0  0  0  0  0  0  0  0  0  0  0
    2.6056  -50.8556  -21.2531 N   0  0  0  0  0  0  0  0  0  0  0  0
    2.6418  -50.6494  -22.5967 C   0  0  0  0  0  0  0  0  0  0  0  0
    1.7641  -51.1713  -23.5604 C   0  0  0  0  0  0  0  0  0  0  0  0
    5.2807  -48.5324  -27.0777 H   0  0  0  0  0  0  0  0  0  0  0  0
   -0.7333  -52.5148  -17.9595 C   0  0  0  0  0  0  0  0  0  0  0  0
   -0.9058  -53.1721  -19.2206 N   0  0  0  0  0  0  0  0  0  0  0  0
   -1.4993  -53.9971  -19.1857 H   0  0  0  0  0  0  0  0  0  0  0  0
   -1.0515  -54.2278  -21.4651 O   0  0  0  0  0  0  0  0  0  0  0  0
   -1.0864  -55.1033  -22.5224 C   0  0  0  0  0  0  0  0  0  0  0  0
 33 34  1  0  0  0
 34  1  1  0  0  0
  1  2  1  0  0  0
  2  3  1  0  0  0
  3  4  1  0  0  0
  4  5  1  0  0  0
  5  6  1  0  0  0
  5  7  1  0  0  0
  7 36  1  0  0  0
 36 37  1  0  0  0
  5  8  1  0  0  0
  8  9  1  0  0  0
  9 10  2  0  0  0
 10 11  1  0  0  0
 11 12  2  0  0  0
 12 13  1  0  0  0
 13 14  2  0  0  0
 14 15  1  0  0  0
 15 16  2  0  0  0
 16 17  1  0  0  0
 17 18  1  0  0  0
 18 19  1  0  0  0
 19 20  2  0  0  0
 19 21  1  0  0  0
 21 22  2  0  0  0
 22 23  1  0  0  0
 23 24  2  0  0  0
 24 25  1  0  0  0
 25 26  2  0  0  0
 26 27  1  0  0  0
 27 28  2  0  0  0
 28 29  1  0  0  0
 29 30  1  0  0  0
 30 31  2  0  0  0
  7  1  1  0  0  0
 31  8  1  0  0  0
 29  3  1  0  0  0
 14  9  1  0  0  0
 31 15  1  0  0  0
 21 16  1  0  0  0
 30 22  1  0  0  0
 28 23  1  0  0  0
 34 35  1  0  0  0
 18 32  1  0  0  0
M  END
> <minimizedAffinity>
-8.95538

> <CNNscore>
0.2826792896

> <CNNaffinity>
6.5420656204

> <CNN_VS>
1.8493064642

> <CNNaffinity_variance>
0.3233014941

$$$$
[H]c1c([H])c([H])c2c(c1[H])c1c3c(c4c5c([H])c([H])c([H])c([H])c5n5c4c1n2[C@]1([H])O[C@]5(C([H])([H])[H])[C@]([H])(OC([H])([H])[H])[C@]([H])(N([H])C([H])([H])[H])C1([H])[H])C([H])([H])N([H])C3=O


 37 44  0  0  0  0  0  0  0  0999 V2000
   -0.4763  -52.8967  -23.6953 C   0  0  0  0  0  0  0  0  0  0  0  0
    0.6859  -51.9635  -24.1731 C   0  0  0  0  0  0  0  0  0  0  0  0
    1.0560  -51.3776  -22.9829 C   0  0  0  0  0  0  0  0  0  0  0  0
    1.4108  -52.4361  -22.1593 O   0  0  0  0  0  0  0  0  0  0  0  0
    0.2949  -52.6473  -21.2887 C   0  0  0  0  0  0  0  0  0  0  0  0
    0.6259  -54.0594  -20.7468 C   0  0  0  0  0  0  0  0  0  0  0  0
   -0.8299  -52.6587  -22.2032 C   0  0  0  0  0  0  0  0  0  0  0  0
    0.4593  -51.6687  -20.2382 N   0  0  0  0  0  0  0  0  0  0  0  0
    0.0431  -51.7925  -18.9513 C   0  0  0  0  0  0  0  0  0  0  0  0
   -0.7254  -52.7206  -18.3233 C   0  0  0  0  0  0  0  0  0  0  0  0
   -1.0356  -52.6251  -16.9533 C   0  0  0  0  0  0  0  0  0  0  0  0
   -0.5529  -51.5647  -16.2176 C   0  0  0  0  0  0  0  0  0  0  0  0
    0.2349  -50.5979  -16.8291 C   0  0  0  0  0  0  0  0  0  0  0  0
    0.5041  -50.7462  -18.1732 C   0  0  0  0  0  0  0  0  0  0  0  0
    1.2229  -49.9448  -18.9980 C   0  0  0  0  0  0  0  0  0  0  0  0
    1.9656  -48.7708  -18.8662 C   0  0  0  0  0  0  0  0  0  0  0  0
    2.1633  -47.9784  -17.6250 C   0  0  0  0  0  0  0  0  0  0  0  0
    2.9988  -46.8765  -18.0363 N   0  0  0  0  0  0  0  0  0  0  0  0
    3.3038  -46.9782  -19.4450 C   0  0  0  0  0  0  0  0  0  0  0  0
    4.0161  -46.1209  -19.9961 O   0  0  0  0  0  0  0  0  0  0  0  0
    2.6381  -48.1727  -19.9142 C   0  0  0  0  0  0  0  0  0  0  0  0
    2.5849  -48.7465  -21.1741 C   0  0  0  0  0  0  0  0  0  0  0  0
    3.0541  -48.4269  -22.4160 C   0  0  0  0  0  0  0  0  0  0  0  0
    3.8234  -47.4274  -22.9132 C   0  0  0  0  0  0  0  0  0  0  0  0
    4.1093  -47.4188  -24.2835 C   0  0  0  0  0  0  0  0  0  0  0  0
    3.6242  -48.4004  -25.1163 C   0  0  0  0  0  0  0  0  0  0  0  0
    2.8396  -49.4225  -24.6170 C   0  0  0  0  0  0  0  0  0  0  0  0
    2.5679  -49.4120  -23.2545 C   0  0  0  0  0  0  0  0  0  0  0  0
    1.8457  -50.2903  -22.5872 N   0  0  0  0  0  0  0  0  0  0  0  0
    1.8499  -49.9000  -21.2846 C   0  0  0  0  0  0  0  0  0  0  0  0
    1.1763  -50.5083  -20.2131 C   0  0  0  0  0  0  0  0  0  0  0  0
    3.3168  -46.1340  -17.3872 H   0  0  0  0  0  0  0  0  0  0  0  0
    0.0110  -54.4940  -25.3492 C   0  0  0  0  0  0  0  0  0  0  0  0
   -0.1973  -54.2646  -23.9506 N   0  0  0  0  0  0  0  0  0  0  0  0
   -0.8457  -54.9131  -23.5112 H   0  0  0  0  0  0  0  0  0  0  0  0
   -1.5780  -53.8449  -21.9278 O   0  0  0  0  0  0  0  0  0  0  0  0
   -2.6397  -53.6112  -21.0889 C   0  0  0  0  0  0  0  0  0  0  0  0
 33 34  1  0  0  0
 34  1  1  0  0  0
  1  2  1  0  0  0
  2  3  1  0  0  0
  3  4  1  0  0  0
  4  5  1  0  0  0
  5  6  1  0  0  0
  5  7  1  0  0  0
  7 36  1  0  0  0
 36 37  1  0  0  0
  5  8  1  0  0  0
  8  9  1  0  0  0
  9 10  2  0  0  0
 10 11  1  0  0  0
 11 12  2  0  0  0
 12 13  1  0  0  0
 13 14  2  0  0  0
 14 15  1  0  0  0
 15 16  2  0  0  0
 16 17  1  0  0  0
 17 18  1  0  0  0
 18 19  1  0  0  0
 19 20  2  0  0  0
 19 21  1  0  0  0
 21 22  2  0  0  0
 22 23  1  0  0  0
 23 24  2  0  0  0
 24 25  1  0  0  0
 25 26  2  0  0  0
 26 27  1  0  0  0
 27 28  2  0  0  0
 28 29  1  0  0  0
 29 30  1  0  0  0
 30 31  2  0  0  0
  7  1  1  0  0  0
 31  8  1  0  0  0
 29  3  1  0  0  0
 14  9  1  0  0  0
 31 15  1  0  0  0
 21 16  1  0  0  0
 30 22  1  0  0  0
 28 23  1  0  0  0
 34 35  1  0  0  0
 18 32  1  0  0  0
M  END
> <minimizedAffinity>
-8.10638

> <CNNscore>
0.2405148894

> <CNNaffinity>
6.5152420998

> <CNN_VS>
1.5670127869

> <CNNaffinity_variance>
0.0712101832

$$$$
[H]c1c([H])c([H])c(N([H])c2nc(-c3c([H])c([H])c([H])c(N([H])S(=O)(=O)C([H])([H])C([H])([H])C([H])([H])[H])c3[H])c3c([H])c(OC([H])([H])C([H])([H])C([H])([H])N4C([H])([H])C([H])([H])OC([H])([H])C4([H])[H])c(OC([H])([H])[H])c([H])c3n2)c([H])c1[H]


 44 48  0  0  0  0  0  0  0  0999 V2000
    1.5210  -52.1500  -22.8996 C   0  0  0  0  0  0  0  0  0  0  0  0
    0.8493  -52.8203  -23.8866 N   0  0  0  0  0  0  0  0  0  0  0  0
   -0.2643  -53.5512  -23.6926 C   0  0  0  0  0  0  0  0  0  0  0  0
   -0.7467  -53.6260  -22.4478 N   0  0  0  0  0  0  0  0  0  0  0  0
   -0.1459  -53.0000  -21.4445 C   0  0  0  0  0  0  0  0  0  0  0  0
    1.0160  -52.2341  -21.6346 C   0  0  0  0  0  0  0  0  0  0  0  0
    1.6229  -51.5761  -20.5906 C   0  0  0  0  0  0  0  0  0  0  0  0
    1.0640  -51.6853  -19.3299 C   0  0  0  0  0  0  0  0  0  0  0  0
   -0.0684  -52.4288  -19.1194 C   0  0  0  0  0  0  0  0  0  0  0  0
   -0.6881  -53.0940  -20.1680 C   0  0  0  0  0  0  0  0  0  0  0  0
    3.5667  -49.2645  -24.0995 C   0  0  0  0  0  0  0  0  0  0  0  0
    4.8200  -49.7863  -23.9709 C   0  0  0  0  0  0  0  0  0  0  0  0
    5.0419  -51.0848  -23.4946 C   0  0  0  0  0  0  0  0  0  0  0  0
    3.9797  -51.8779  -23.1401 C   0  0  0  0  0  0  0  0  0  0  0  0
    2.7098  -51.3900  -23.2558 C   0  0  0  0  0  0  0  0  0  0  0  0
    2.5230  -50.1141  -23.7252 C   0  0  0  0  0  0  0  0  0  0  0  0
    3.3142  -47.9711  -24.6072 N   0  0  0  0  0  0  0  0  0  0  0  0
    3.0480  -47.9962  -25.6587 H   0  0  0  0  0  0  0  0  0  0  0  0
    3.3699  -46.4748  -23.8281 S   0  0  0  0  0  0  0  0  0  0  0  0
    2.7640  -46.6729  -22.4394 O   0  0  0  0  0  0  0  0  0  0  0  0
    4.7839  -45.9957  -23.5886 O   0  0  0  0  0  0  0  0  0  0  0  0
    2.4189  -45.2623  -24.6774 C   0  0  0  0  0  0  0  0  0  0  0  0
    3.3347  -44.9086  -26.9561 C   0  0  0  0  0  0  0  0  0  0  0  0
    2.3158  -45.6570  -26.1470 C   0  0  0  0  0  0  0  0  0  0  0  0
   -0.7856  -54.1891  -24.8302 N   0  0  0  0  0  0  0  0  0  0  0  0
   -1.3780  -55.0462  -24.7142 H   0  0  0  0  0  0  0  0  0  0  0  0
   -0.5572  -53.7408  -26.1433 C   0  0  0  0  0  0  0  0  0  0  0  0
    0.3821  -54.4366  -26.9316 C   0  0  0  0  0  0  0  0  0  0  0  0
    0.6278  -53.9843  -28.1950 C   0  0  0  0  0  0  0  0  0  0  0  0
   -0.0086  -52.8790  -28.7175 C   0  0  0  0  0  0  0  0  0  0  0  0
   -0.9067  -52.2324  -27.9308 C   0  0  0  0  0  0  0  0  0  0  0  0
   -1.2050  -52.6408  -26.6297 C   0  0  0  0  0  0  0  0  0  0  0  0
   -0.6540  -52.5585  -17.8653 O   0  0  0  0  0  0  0  0  0  0  0  0
   -1.9499  -53.0412  -17.6646 C   0  0  0  0  0  0  0  0  0  0  0  0
    1.6562  -51.0375  -18.2720 O   0  0  0  0  0  0  0  0  0  0  0  0
    1.3193  -49.7436  -17.8263 C   0  0  0  0  0  0  0  0  0  0  0  0
    2.3191  -48.7283  -18.3407 C   0  0  0  0  0  0  0  0  0  0  0  0
    3.6541  -48.9257  -17.6671 C   0  0  0  0  0  0  0  0  0  0  0  0
    4.7169  -48.6555  -18.5960 N   0  0  0  0  0  0  0  0  0  0  0  0
    4.6058  -47.3355  -19.2024 C   0  0  0  0  0  0  0  0  0  0  0  0
    5.5916  -47.1728  -20.3338 C   0  0  0  0  0  0  0  0  0  0  0  0
    6.5692  -48.1775  -20.2643 O   0  0  0  0  0  0  0  0  0  0  0  0
    6.0532  -49.4472  -20.3981 C   0  0  0  0  0  0  0  0  0  0  0  0
    4.7334  -49.6188  -19.6557 C   0  0  0  0  0  0  0  0  0  0  0  0
 23 24  1  0  0  0
 24 22  1  0  0  0
 22 19  1  0  0  0
 19 20  2  0  0  0
 19 21  2  0  0  0
 19 17  1  0  0  0
 17 11  1  0  0  0
 11 12  2  0  0  0
 12 13  1  0  0  0
 13 14  2  0  0  0
 14 15  1  0  0  0
 15 16  2  0  0  0
 15  1  1  0  0  0
  1  2  2  0  0  0
  2  3  1  0  0  0
  3 25  1  0  0  0
 25 27  1  0  0  0
 27 28  2  0  0  0
 28 29  1  0  0  0
 29 30  2  0  0  0
 30 31  1  0  0  0
 31 32  2  0  0  0
  3  4  2  0  0  0
  4  5  1  0  0  0
  5  6  2  0  0  0
  6  7  1  0  0  0
  7  8  2  0  0  0
  8 35  1  0  0  0
 35 36  1  0  0  0
 36 37  1  0  0  0
 37 38  1  0  0  0
 38 39  1  0  0  0
 39 40  1  0  0  0
 40 41  1  0  0  0
 41 42  1  0  0  0
 42 43  1  0  0  0
 43 44  1  0  0  0
  8  9  1  0  0  0
  9 33  1  0  0  0
 33 34  1  0  0  0
  9 10  2  0  0  0
 16 11  1  0  0  0
  6  1  1  0  0  0
 44 39  1  0  0  0
 32 27  1  0  0  0
 10  5  1  0  0  0
 17 18  1  0  0  0
 25 26  1  0  0  0
M  END
> <minimizedAffinity>
-7.46076

> <CNNscore>
0.6876106858

> <CNNaffinity>
7.7456808090

> <CNN_VS>
5.3260130882

> <CNNaffinity_variance>
0.0478303358

$$$$
[H]c1c([H])c([H])c(N([H])c2nc(-c3c([H])c([H])c([H])c(N([H])S(=O)(=O)C([H])([H])C([H])([H])C([H])([H])[H])c3[H])c3c([H])c(OC([H])([H])C([H])([H])C([H])([H])N4C([H])([H])C([H])([H])OC([H])([H])C4([H])[H])c(OC([H])([H])[H])c([H])c3n2)c([H])c1[H]


 44 48  0  0  0  0  0  0  0  0999 V2000
    0.2847  -51.3927  -20.0859 C   0  0  0  0  0  0  0  0  0  0  0  0
   -0.1382  -51.7663  -18.8385 N   0  0  0  0  0  0  0  0  0  0  0  0
   -0.8853  -52.8557  -18.5791 C   0  0  0  0  0  0  0  0  0  0  0  0
   -1.2373  -53.6256  -19.6140 N   0  0  0  0  0  0  0  0  0  0  0  0
   -0.8607  -53.3224  -20.8492 C   0  0  0  0  0  0  0  0  0  0  0  0
   -0.0809  -52.1890  -21.1321 C   0  0  0  0  0  0  0  0  0  0  0  0
    0.3177  -51.8916  -22.4143 C   0  0  0  0  0  0  0  0  0  0  0  0
   -0.0710  -52.7378  -23.4373 C   0  0  0  0  0  0  0  0  0  0  0  0
   -0.8339  -53.8488  -23.1860 C   0  0  0  0  0  0  0  0  0  0  0  0
   -1.2382  -54.1571  -21.8947 C   0  0  0  0  0  0  0  0  0  0  0  0
    2.3375  -48.7558  -21.7542 C   0  0  0  0  0  0  0  0  0  0  0  0
    2.6318  -47.9645  -20.6833 C   0  0  0  0  0  0  0  0  0  0  0  0
    2.1778  -48.2591  -19.3913 C   0  0  0  0  0  0  0  0  0  0  0  0
    1.4108  -49.3753  -19.1699 C   0  0  0  0  0  0  0  0  0  0  0  0
    1.0963  -50.1920  -20.2178 C   0  0  0  0  0  0  0  0  0  0  0  0
    1.5549  -49.8780  -21.4725 C   0  0  0  0  0  0  0  0  0  0  0  0
    2.8095  -48.4990  -23.0602 N   0  0  0  0  0  0  0  0  0  0  0  0
    2.7014  -49.3649  -23.7049 H   0  0  0  0  0  0  0  0  0  0  0  0
    3.4818  -47.0933  -23.7091 S   0  0  0  0  0  0  0  0  0  0  0  0
    2.5342  -45.9456  -23.3630 O   0  0  0  0  0  0  0  0  0  0  0  0
    4.8045  -46.7328  -23.0713 O   0  0  0  0  0  0  0  0  0  0  0  0
    3.6202  -47.1858  -25.4607 C   0  0  0  0  0  0  0  0  0  0  0  0
    3.8328  -48.9243  -27.2181 C   0  0  0  0  0  0  0  0  0  0  0  0
    3.1710  -48.5695  -25.9185 C   0  0  0  0  0  0  0  0  0  0  0  0
   -1.2436  -53.0482  -17.2347 N   0  0  0  0  0  0  0  0  0  0  0  0
   -0.7670  -53.7967  -16.6766 H   0  0  0  0  0  0  0  0  0  0  0  0
   -2.2232  -52.2837  -16.5765 C   0  0  0  0  0  0  0  0  0  0  0  0
   -1.8052  -51.1590  -15.8361 C   0  0  0  0  0  0  0  0  0  0  0  0
   -2.7509  -50.4343  -15.1714 C   0  0  0  0  0  0  0  0  0  0  0  0
   -4.0883  -50.7661  -15.2023 C   0  0  0  0  0  0  0  0  0  0  0  0
   -4.4558  -51.8555  -15.9245 C   0  0  0  0  0  0  0  0  0  0  0  0
   -3.5408  -52.6412  -16.6273 C   0  0  0  0  0  0  0  0  0  0  0  0
   -1.2407  -54.7182  -24.1916 O   0  0  0  0  0  0  0  0  0  0  0  0
   -0.7431  -56.0157  -24.3383 C   0  0  0  0  0  0  0  0  0  0  0  0
    0.3145  -52.4575  -24.7266 O   0  0  0  0  0  0  0  0  0  0  0  0
    1.5325  -51.8494  -25.0912 C   0  0  0  0  0  0  0  0  0  0  0  0
    2.7046  -52.6904  -24.6287 C   0  0  0  0  0  0  0  0  0  0  0  0
    4.0034  -52.0448  -25.0427 C   0  0  0  0  0  0  0  0  0  0  0  0
    4.5293  -51.2618  -23.9584 N   0  0  0  0  0  0  0  0  0  0  0  0
    5.7452  -50.5476  -24.3243 C   0  0  0  0  0  0  0  0  0  0  0  0
    6.3965  -49.9272  -23.1122 C   0  0  0  0  0  0  0  0  0  0  0  0
    5.4882  -49.9006  -22.0425 O   0  0  0  0  0  0  0  0  0  0  0  0
    5.0794  -51.1545  -21.6463 C   0  0  0  0  0  0  0  0  0  0  0  0
    4.8349  -52.0858  -22.8276 C   0  0  0  0  0  0  0  0  0  0  0  0
 23 24  1  0  0  0
 24 22  1  0  0  0
 22 19  1  0  0  0
 19 20  2  0  0  0
 19 21  2  0  0  0
 19 17  1  0  0  0
 17 11  1  0  0  0
 11 12  2  0  0  0
 12 13  1  0  0  0
 13 14  2  0  0  0
 14 15  1  0  0  0
 15 16  2  0  0  0
 15  1  1  0  0  0
  1  2  2  0  0  0
  2  3  1  0  0  0
  3 25  1  0  0  0
 25 27  1  0  0  0
 27 28  2  0  0  0
 28 29  1  0  0  0
 29 30  2  0  0  0
 30 31  1  0  0  0
 31 32  2  0  0  0
  3  4  2  0  0  0
  4  5  1  0  0  0
  5  6  2  0  0  0
  6  7  1  0  0  0
  7  8  2  0  0  0
  8 35  1  0  0  0
 35 36  1  0  0  0
 36 37  1  0  0  0
 37 38  1  0  0  0
 38 39  1  0  0  0
 39 40  1  0  0  0
 40 41  1  0  0  0
 41 42  1  0  0  0
 42 43  1  0  0  0
 43 44  1  0  0  0
  8  9  1  0  0  0
  9 33  1  0  0  0
 33 34  1  0  0  0
  9 10  2  0  0  0
 16 11  1  0  0  0
  6  1  1  0  0  0
 44 39  1  0  0  0
 32 27  1  0  0  0
 10  5  1  0  0  0
 17 18  1  0  0  0
 25 26  1  0  0  0
M  END
> <minimizedAffinity>
-7.99901

> <CNNscore>
0.6315243244

> <CNNaffinity>
7.5958814621

> <CNN_VS>
4.7969837189

> <CNNaffinity_variance>
0.2623026967

$$$$
[H]c1c([H])c([H])c(N([H])c2nc(-c3c([H])c([H])c([H])c(N([H])S(=O)(=O)C([H])([H])C([H])([H])C([H])([H])[H])c3[H])c3c([H])c(OC([H])([H])C([H])([H])C([H])([H])N4C([H])([H])C([H])([H])OC([H])([H])C4([H])[H])c(OC([H])([H])[H])c([H])c3n2)c([H])c1[H]


 44 48  0  0  0  0  0  0  0  0999 V2000
    0.2002  -51.4469  -20.2812 C   0  0  0  0  0  0  0  0  0  0  0  0
   -0.1965  -51.8558  -19.0363 N   0  0  0  0  0  0  0  0  0  0  0  0
   -0.8751  -52.9908  -18.7848 C   0  0  0  0  0  0  0  0  0  0  0  0
   -1.1817  -53.7723  -19.8255 N   0  0  0  0  0  0  0  0  0  0  0  0
   -0.8269  -53.4366  -21.0587 C   0  0  0  0  0  0  0  0  0  0  0  0
   -0.1183  -52.2554  -21.3335 C   0  0  0  0  0  0  0  0  0  0  0  0
    0.2586  -51.9237  -22.6138 C   0  0  0  0  0  0  0  0  0  0  0  0
   -0.0799  -52.7836  -23.6432 C   0  0  0  0  0  0  0  0  0  0  0  0
   -0.7730  -53.9411  -23.3998 C   0  0  0  0  0  0  0  0  0  0  0  0
   -1.1550  -54.2841  -22.1105 C   0  0  0  0  0  0  0  0  0  0  0  0
    2.1397  -48.4399  -19.2101 C   0  0  0  0  0  0  0  0  0  0  0  0
    2.3602  -47.8505  -20.4200 C   0  0  0  0  0  0  0  0  0  0  0  0
    1.8885  -48.4052  -21.6166 C   0  0  0  0  0  0  0  0  0  0  0  0
    1.1779  -49.5789  -21.5973 C   0  0  0  0  0  0  0  0  0  0  0  0
    0.9367  -50.1978  -20.4045 C   0  0  0  0  0  0  0  0  0  0  0  0
    1.4115  -49.6313  -19.2482 C   0  0  0  0  0  0  0  0  0  0  0  0
    2.5761  -47.8851  -17.9870 N   0  0  0  0  0  0  0  0  0  0  0  0
    2.4752  -46.8049  -17.9761 H   0  0  0  0  0  0  0  0  0  0  0  0
    3.1988  -48.6476  -16.6159 S   0  0  0  0  0  0  0  0  0  0  0  0
    4.0049  -49.8509  -17.1029 O   0  0  0  0  0  0  0  0  0  0  0  0
    4.1816  -47.7795  -15.8631 O   0  0  0  0  0  0  0  0  0  0  0  0
    1.9200  -49.2315  -15.5579 C   0  0  0  0  0  0  0  0  0  0  0  0
    1.8644  -51.4580  -14.4643 C   0  0  0  0  0  0  0  0  0  0  0  0
    1.7487  -50.7317  -15.7727 C   0  0  0  0  0  0  0  0  0  0  0  0
   -1.2182  -53.2159  -17.4415 N   0  0  0  0  0  0  0  0  0  0  0  0
   -0.7153  -53.9586  -16.8987 H   0  0  0  0  0  0  0  0  0  0  0  0
   -2.2158  -52.4922  -16.7645 C   0  0  0  0  0  0  0  0  0  0  0  0
   -1.8237  -51.3835  -15.9867 C   0  0  0  0  0  0  0  0  0  0  0  0
   -2.7867  -50.6991  -15.3043 C   0  0  0  0  0  0  0  0  0  0  0  0
   -4.1170  -51.0560  -15.3527 C   0  0  0  0  0  0  0  0  0  0  0  0
   -4.4594  -52.1291  -16.1109 C   0  0  0  0  0  0  0  0  0  0  0  0
   -3.5258  -52.8738  -16.8334 C   0  0  0  0  0  0  0  0  0  0  0  0
   -1.1282  -54.8255  -24.4119 O   0  0  0  0  0  0  0  0  0  0  0  0
   -0.8174  -56.1876  -24.3911 C   0  0  0  0  0  0  0  0  0  0  0  0
    0.2850  -52.4697  -24.9307 O   0  0  0  0  0  0  0  0  0  0  0  0
    1.3218  -53.0956  -25.6516 C   0  0  0  0  0  0  0  0  0  0  0  0
    2.6633  -52.8076  -25.0094 C   0  0  0  0  0  0  0  0  0  0  0  0
    3.0000  -51.3434  -25.1423 C   0  0  0  0  0  0  0  0  0  0  0  0
    3.6771  -50.8866  -23.9599 N   0  0  0  0  0  0  0  0  0  0  0  0
    4.9258  -50.1995  -24.2623 C   0  0  0  0  0  0  0  0  0  0  0  0
    5.7212  -49.9403  -23.0059 C   0  0  0  0  0  0  0  0  0  0  0  0
    4.9010  -50.1033  -21.8786 O   0  0  0  0  0  0  0  0  0  0  0  0
    4.4039  -51.3810  -21.7492 C   0  0  0  0  0  0  0  0  0  0  0  0
    3.9847  -51.9792  -23.0866 C   0  0  0  0  0  0  0  0  0  0  0  0
 23 24  1  0  0  0
 24 22  1  0  0  0
 22 19  1  0  0  0
 19 20  2  0  0  0
 19 21  2  0  0  0
 19 17  1  0  0  0
 17 11  1  0  0  0
 11 12  2  0  0  0
 12 13  1  0  0  0
 13 14  2  0  0  0
 14 15  1  0  0  0
 15 16  2  0  0  0
 15  1  1  0  0  0
  1  2  2  0  0  0
  2  3  1  0  0  0
  3 25  1  0  0  0
 25 27  1  0  0  0
 27 28  2  0  0  0
 28 29  1  0  0  0
 29 30  2  0  0  0
 30 31  1  0  0  0
 31 32  2  0  0  0
  3  4  2  0  0  0
  4  5  1  0  0  0
  5  6  2  0  0  0
  6  7  1  0  0  0
  7  8  2  0  0  0
  8 35  1  0  0  0
 35 36  1  0  0  0
 36 37  1  0  0  0
 37 38  1  0  0  0
 38 39  1  0  0  0
 39 40  1  0  0  0
 40 41  1  0  0  0
 41 42  1  0  0  0
 42 43  1  0  0  0
 43 44  1  0  0  0
  8  9  1  0  0  0
  9 33  1  0  0  0
 33 34  1  0  0  0
  9 10  2  0  0  0
 16 11  1  0  0  0
  6  1  1  0  0  0
 44 39  1  0  0  0
 32 27  1  0  0  0
 10  5  1  0  0  0
 17 18  1  0  0  0
 25 26  1  0  0  0
M  END
> <minimizedAffinity>
-7.92124

> <CNNscore>
0.6204397082

> <CNNaffinity>
7.6358137131

> <CNN_VS>
4.7375621796

> <CNNaffinity_variance>
0.1537396014

$$$$
[H]c1c([H])c([H])c(N([H])c2nc(-c3c([H])c([H])c([H])c(N([H])S(=O)(=O)C([H])([H])C([H])([H])C([H])([H])[H])c3[H])c3c([H])c(OC([H])([H])C([H])([H])C([H])([H])N4C([H])([H])C([H])([H])OC([H])([H])C4([H])[H])c(OC([H])([H])[H])c([H])c3n2)c([H])c1[H]


 44 48  0  0  0  0  0  0  0  0999 V2000
    1.7012  -52.1519  -23.4083 C   0  0  0  0  0  0  0  0  0  0  0  0
    0.9822  -52.8079  -24.3711 N   0  0  0  0  0  0  0  0  0  0  0  0
   -0.1676  -53.4712  -24.1474 C   0  0  0  0  0  0  0  0  0  0  0  0
   -0.6389  -53.4887  -22.8963 N   0  0  0  0  0  0  0  0  0  0  0  0
    0.0071  -52.8725  -21.9152 C   0  0  0  0  0  0  0  0  0  0  0  0
    1.2071  -52.1769  -22.1364 C   0  0  0  0  0  0  0  0  0  0  0  0
    1.8613  -51.5280  -21.1155 C   0  0  0  0  0  0  0  0  0  0  0  0
    1.3119  -51.5753  -19.8468 C   0  0  0  0  0  0  0  0  0  0  0  0
    0.1429  -52.2497  -19.6061 C   0  0  0  0  0  0  0  0  0  0  0  0
   -0.5246  -52.9050  -20.6313 C   0  0  0  0  0  0  0  0  0  0  0  0
    3.8809  -49.4613  -24.8084 C   0  0  0  0  0  0  0  0  0  0  0  0
    5.1109  -50.0079  -24.5897 C   0  0  0  0  0  0  0  0  0  0  0  0
    5.2732  -51.2612  -23.9853 C   0  0  0  0  0  0  0  0  0  0  0  0
    4.1740  -51.9825  -23.5923 C   0  0  0  0  0  0  0  0  0  0  0  0
    2.9258  -51.4678  -23.7956 C   0  0  0  0  0  0  0  0  0  0  0  0
    2.7976  -50.2374  -24.3897 C   0  0  0  0  0  0  0  0  0  0  0  0
    3.6888  -48.2152  -25.4445 N   0  0  0  0  0  0  0  0  0  0  0  0
    3.4059  -48.3337  -26.4852 H   0  0  0  0  0  0  0  0  0  0  0  0
    3.8344  -46.6520  -24.8247 S   0  0  0  0  0  0  0  0  0  0  0  0
    2.8238  -46.5287  -23.6852 O   0  0  0  0  0  0  0  0  0  0  0  0
    5.1862  -46.3987  -24.1964 O   0  0  0  0  0  0  0  0  0  0  0  0
    3.4531  -45.4331  -26.0350 C   0  0  0  0  0  0  0  0  0  0  0  0
    2.2735  -45.8117  -28.1847 C   0  0  0  0  0  0  0  0  0  0  0  0
    2.1233  -45.7892  -26.6916 C   0  0  0  0  0  0  0  0  0  0  0  0
   -0.7364  -54.1070  -25.2633 N   0  0  0  0  0  0  0  0  0  0  0  0
   -1.3525  -54.9433  -25.1213 H   0  0  0  0  0  0  0  0  0  0  0  0
   -0.5262  -53.6834  -26.5876 C   0  0  0  0  0  0  0  0  0  0  0  0
    0.5646  -54.2271  -27.2964 C   0  0  0  0  0  0  0  0  0  0  0  0
    0.7884  -53.7940  -28.5707 C   0  0  0  0  0  0  0  0  0  0  0  0
   -0.0119  -52.8508  -29.1784 C   0  0  0  0  0  0  0  0  0  0  0  0
   -1.0531  -52.3478  -28.4667 C   0  0  0  0  0  0  0  0  0  0  0  0
   -1.3386  -52.7458  -27.1596 C   0  0  0  0  0  0  0  0  0  0  0  0
   -0.4344  -52.3160  -18.3432 O   0  0  0  0  0  0  0  0  0  0  0  0
   -1.5385  -53.1170  -18.0402 C   0  0  0  0  0  0  0  0  0  0  0  0
    1.9512  -50.9355  -18.8116 O   0  0  0  0  0  0  0  0  0  0  0  0
    1.8004  -49.5719  -18.4889 C   0  0  0  0  0  0  0  0  0  0  0  0
    1.6745  -49.3924  -16.9899 C   0  0  0  0  0  0  0  0  0  0  0  0
    0.2208  -49.3114  -16.5961 C   0  0  0  0  0  0  0  0  0  0  0  0
   -0.0115  -50.0954  -15.4142 N   0  0  0  0  0  0  0  0  0  0  0  0
    0.8715  -51.2510  -15.3287 C   0  0  0  0  0  0  0  0  0  0  0  0
    0.4516  -52.1739  -14.2105 C   0  0  0  0  0  0  0  0  0  0  0  0
   -0.4333  -51.5083  -13.3481 O   0  0  0  0  0  0  0  0  0  0  0  0
   -1.5996  -51.1146  -13.9654 C   0  0  0  0  0  0  0  0  0  0  0  0
   -1.3598  -50.5765  -15.3709 C   0  0  0  0  0  0  0  0  0  0  0  0
 23 24  1  0  0  0
 24 22  1  0  0  0
 22 19  1  0  0  0
 19 20  2  0  0  0
 19 21  2  0  0  0
 19 17  1  0  0  0
 17 11  1  0  0  0
 11 12  2  0  0  0
 12 13  1  0  0  0
 13 14  2  0  0  0
 14 15  1  0  0  0
 15 16  2  0  0  0
 15  1  1  0  0  0
  1  2  2  0  0  0
  2  3  1  0  0  0
  3 25  1  0  0  0
 25 27  1  0  0  0
 27 28  2  0  0  0
 28 29  1  0  0  0
 29 30  2  0  0  0
 30 31  1  0  0  0
 31 32  2  0  0  0
  3  4  2  0  0  0
  4  5  1  0  0  0
  5  6  2  0  0  0
  6  7  1  0  0  0
  7  8  2  0  0  0
  8 35  1  0  0  0
 35 36  1  0  0  0
 36 37  1  0  0  0
 37 38  1  0  0  0
 38 39  1  0  0  0
 39 40  1  0  0  0
 40 41  1  0  0  0
 41 42  1  0  0  0
 42 43  1  0  0  0
 43 44  1  0  0  0
  8  9  1  0  0  0
  9 33  1  0  0  0
 33 34  1  0  0  0
  9 10  2  0  0  0
 16 11  1  0  0  0
  6  1  1  0  0  0
 44 39  1  0  0  0
 32 27  1  0  0  0
 10  5  1  0  0  0
 17 18  1  0  0  0
 25 26  1  0  0  0
M  END
> <minimizedAffinity>
-7.76396

> <CNNscore>
0.4829348922

> <CNNaffinity>
7.7178840637

> <CNN_VS>
3.7272355556

> <CNNaffinity_variance>
0.1083509102

$$$$
[H]c1c([H])c([H])c(N([H])c2nc(-c3c([H])c([H])c([H])c(N([H])S(=O)(=O)C([H])([H])C([H])([H])C([H])([H])[H])c3[H])c3c([H])c(OC([H])([H])C([H])([H])C([H])([H])N4C([H])([H])C([H])([H])OC([H])([H])C4([H])[H])c(OC([H])([H])[H])c([H])c3n2)c([H])c1[H]


 44 48  0  0  0  0  0  0  0  0999 V2000
   -0.0769  -52.2919  -20.5307 C   0  0  0  0  0  0  0  0  0  0  0  0
   -0.5720  -52.6736  -19.3126 N   0  0  0  0  0  0  0  0  0  0  0  0
   -0.3838  -51.9960  -18.1648 C   0  0  0  0  0  0  0  0  0  0  0  0
    0.3370  -50.8713  -18.2208 N   0  0  0  0  0  0  0  0  0  0  0  0
    0.8453  -50.4432  -19.3688 C   0  0  0  0  0  0  0  0  0  0  0  0
    0.6553  -51.1411  -20.5728 C   0  0  0  0  0  0  0  0  0  0  0  0
    1.1733  -50.6808  -21.7607 C   0  0  0  0  0  0  0  0  0  0  0  0
    1.8989  -49.5030  -21.7499 C   0  0  0  0  0  0  0  0  0  0  0  0
    2.0993  -48.8055  -20.5869 C   0  0  0  0  0  0  0  0  0  0  0  0
    1.5780  -49.2620  -19.3845 C   0  0  0  0  0  0  0  0  0  0  0  0
   -0.3038  -53.2652  -24.1296 C   0  0  0  0  0  0  0  0  0  0  0  0
   -0.8272  -54.5186  -24.0088 C   0  0  0  0  0  0  0  0  0  0  0  0
   -1.1237  -55.0860  -22.7629 C   0  0  0  0  0  0  0  0  0  0  0  0
   -0.8895  -54.3773  -21.6114 C   0  0  0  0  0  0  0  0  0  0  0  0
   -0.3667  -53.1187  -21.6927 C   0  0  0  0  0  0  0  0  0  0  0  0
   -0.0859  -52.5888  -22.9271 C   0  0  0  0  0  0  0  0  0  0  0  0
   -0.0264  -52.6580  -25.3741 N   0  0  0  0  0  0  0  0  0  0  0  0
   -0.7269  -51.8603  -25.5979 H   0  0  0  0  0  0  0  0  0  0  0  0
    1.1900  -52.9967  -26.4942 S   0  0  0  0  0  0  0  0  0  0  0  0
    1.7097  -51.6543  -27.0069 O   0  0  0  0  0  0  0  0  0  0  0  0
    2.3841  -53.6807  -25.8675 O   0  0  0  0  0  0  0  0  0  0  0  0
    0.5761  -53.9113  -27.8662 C   0  0  0  0  0  0  0  0  0  0  0  0
   -1.3509  -52.6962  -28.8492 C   0  0  0  0  0  0  0  0  0  0  0  0
    0.1275  -52.9351  -28.9487 C   0  0  0  0  0  0  0  0  0  0  0  0
   -0.9472  -52.5707  -17.0136 N   0  0  0  0  0  0  0  0  0  0  0  0
   -0.4395  -53.3460  -16.5236 H   0  0  0  0  0  0  0  0  0  0  0  0
   -2.1763  -52.1627  -16.4656 C   0  0  0  0  0  0  0  0  0  0  0  0
   -2.1873  -51.0362  -15.6178 C   0  0  0  0  0  0  0  0  0  0  0  0
   -3.3737  -50.6577  -15.0605 C   0  0  0  0  0  0  0  0  0  0  0  0
   -4.5488  -51.3370  -15.2996 C   0  0  0  0  0  0  0  0  0  0  0  0
   -4.5019  -52.4176  -16.1204 C   0  0  0  0  0  0  0  0  0  0  0  0
   -3.3228  -52.8596  -16.7228 C   0  0  0  0  0  0  0  0  0  0  0  0
    2.8235  -47.6197  -20.5429 O   0  0  0  0  0  0  0  0  0  0  0  0
    3.2981  -47.0485  -19.3592 C   0  0  0  0  0  0  0  0  0  0  0  0
    2.4275  -49.0267  -22.9260 O   0  0  0  0  0  0  0  0  0  0  0  0
    3.5749  -49.5410  -23.5626 C   0  0  0  0  0  0  0  0  0  0  0  0
    4.2787  -48.4531  -24.3475 C   0  0  0  0  0  0  0  0  0  0  0  0
    4.0474  -48.6457  -25.8255 C   0  0  0  0  0  0  0  0  0  0  0  0
    3.1844  -47.6111  -26.3258 N   0  0  0  0  0  0  0  0  0  0  0  0
    3.4444  -47.2953  -27.7240 C   0  0  0  0  0  0  0  0  0  0  0  0
    2.6917  -46.0585  -28.1506 C   0  0  0  0  0  0  0  0  0  0  0  0
    1.6897  -45.7617  -27.2136 O   0  0  0  0  0  0  0  0  0  0  0  0
    2.1848  -45.4836  -25.9591 C   0  0  0  0  0  0  0  0  0  0  0  0
    3.3378  -46.4024  -25.5731 C   0  0  0  0  0  0  0  0  0  0  0  0
 23 24  1  0  0  0
 24 22  1  0  0  0
 22 19  1  0  0  0
 19 20  2  0  0  0
 19 21  2  0  0  0
 19 17  1  0  0  0
 17 11  1  0  0  0
 11 12  2  0  0  0
 12 13  1  0  0  0
 13 14  2  0  0  0
 14 15  1  0  0  0
 15 16  2  0  0  0
 15  1  1  0  0  0
  1  2  2  0  0  0
  2  3  1  0  0  0
  3 25  1  0  0  0
 25 27  1  0  0  0
 27 28  2  0  0  0
 28 29  1  0  0  0
 29 30  2  0  0  0
 30 31  1  0  0  0
 31 32  2  0  0  0
  3  4  2  0  0  0
  4  5  1  0  0  0
  5  6  2  0  0  0
  6  7  1  0  0  0
  7  8  2  0  0  0
  8 35  1  0  0  0
 35 36  1  0  0  0
 36 37  1  0  0  0
 37 38  1  0  0  0
 38 39  1  0  0  0
 39 40  1  0  0  0
 40 41  1  0  0  0
 41 42  1  0  0  0
 42 43  1  0  0  0
 43 44  1  0  0  0
  8  9  1  0  0  0
  9 33  1  0  0  0
 33 34  1  0  0  0
  9 10  2  0  0  0
 16 11  1  0  0  0
  6  1  1  0  0  0
 44 39  1  0  0  0
 32 27  1  0  0  0
 10  5  1  0  0  0
 17 18  1  0  0  0
 25 26  1  0  0  0
M  END
> <minimizedAffinity>
-9.11355

> <CNNscore>
0.4700135887

> <CNNaffinity>
7.3098001480

> <CNN_VS>
3.4357054234

> <CNNaffinity_variance>
0.9315407872

$$$$
[H]c1c([H])c([H])c(N([H])c2nc(-c3c([H])c([H])c([H])c(N([H])S(=O)(=O)C([H])([H])C([H])([H])C([H])([H])[H])c3[H])c3c([H])c(OC([H])([H])C([H])([H])C([H])([H])N4C([H])([H])C([H])([H])OC([H])([H])C4([H])[H])c(OC([H])([H])[H])c([H])c3n2)c([H])c1[H]


 44 48  0  0  0  0  0  0  0  0999 V2000
    0.7680  -51.8423  -19.3613 C   0  0  0  0  0  0  0  0  0  0  0  0
   -0.0038  -52.1901  -18.2853 N   0  0  0  0  0  0  0  0  0  0  0  0
   -1.0751  -53.0031  -18.3441 C   0  0  0  0  0  0  0  0  0  0  0  0
   -1.4064  -53.5053  -19.5381 N   0  0  0  0  0  0  0  0  0  0  0  0
   -0.7009  -53.2102  -20.6220 C   0  0  0  0  0  0  0  0  0  0  0  0
    0.4189  -52.3638  -20.5731 C   0  0  0  0  0  0  0  0  0  0  0  0
    1.1532  -52.0763  -21.6998 C   0  0  0  0  0  0  0  0  0  0  0  0
    0.7629  -52.6398  -22.9013 C   0  0  0  0  0  0  0  0  0  0  0  0
   -0.3278  -53.4671  -22.9742 C   0  0  0  0  0  0  0  0  0  0  0  0
   -1.0726  -53.7641  -21.8415 C   0  0  0  0  0  0  0  0  0  0  0  0
    2.6754  -48.8696  -18.1463 C   0  0  0  0  0  0  0  0  0  0  0  0
    3.9166  -49.1651  -18.6279 C   0  0  0  0  0  0  0  0  0  0  0  0
    4.1743  -50.3312  -19.3598 C   0  0  0  0  0  0  0  0  0  0  0  0
    3.1612  -51.2210  -19.6147 C   0  0  0  0  0  0  0  0  0  0  0  0
    1.9048  -50.9588  -19.1491 C   0  0  0  0  0  0  0  0  0  0  0  0
    1.6821  -49.8084  -18.4347 C   0  0  0  0  0  0  0  0  0  0  0  0
    2.3822  -47.6860  -17.4341 N   0  0  0  0  0  0  0  0  0  0  0  0
    2.0845  -46.8804  -18.0970 H   0  0  0  0  0  0  0  0  0  0  0  0
    2.4324  -47.3834  -15.7742 S   0  0  0  0  0  0  0  0  0  0  0  0
    2.9724  -45.9651  -15.5961 O   0  0  0  0  0  0  0  0  0  0  0  0
    1.0587  -47.3760  -15.1423 O   0  0  0  0  0  0  0  0  0  0  0  0
    3.5134  -48.4943  -14.9418 C   0  0  0  0  0  0  0  0  0  0  0  0
    3.5833  -50.9531  -15.2668 C   0  0  0  0  0  0  0  0  0  0  0  0
    2.7825  -49.8126  -14.7095 C   0  0  0  0  0  0  0  0  0  0  0  0
   -1.7546  -53.2114  -17.1325 N   0  0  0  0  0  0  0  0  0  0  0  0
   -1.7189  -54.1551  -16.6775 H   0  0  0  0  0  0  0  0  0  0  0  0
   -2.4962  -52.2119  -16.4779 C   0  0  0  0  0  0  0  0  0  0  0  0
   -1.7928  -51.1694  -15.8405 C   0  0  0  0  0  0  0  0  0  0  0  0
   -2.5097  -50.2158  -15.1784 C   0  0  0  0  0  0  0  0  0  0  0  0
   -3.8862  -50.2419  -15.1153 C   0  0  0  0  0  0  0  0  0  0  0  0
   -4.5314  -51.2604  -15.7397 C   0  0  0  0  0  0  0  0  0  0  0  0
   -3.8604  -52.2685  -16.4338 C   0  0  0  0  0  0  0  0  0  0  0  0
   -0.7455  -54.0485  -24.1658 O   0  0  0  0  0  0  0  0  0  0  0  0
   -0.8919  -55.4269  -24.3426 C   0  0  0  0  0  0  0  0  0  0  0  0
    1.4816  -52.3634  -24.0400 O   0  0  0  0  0  0  0  0  0  0  0  0
    2.7910  -52.8160  -24.2983 C   0  0  0  0  0  0  0  0  0  0  0  0
    3.7776  -51.6707  -24.1984 C   0  0  0  0  0  0  0  0  0  0  0  0
    5.1906  -52.1980  -24.2209 C   0  0  0  0  0  0  0  0  0  0  0  0
    6.1114  -51.1477  -23.8826 N   0  0  0  0  0  0  0  0  0  0  0  0
    6.1003  -50.8326  -22.4602 C   0  0  0  0  0  0  0  0  0  0  0  0
    6.8960  -49.5822  -22.1747 C   0  0  0  0  0  0  0  0  0  0  0  0
    7.7091  -49.2711  -23.2756 O   0  0  0  0  0  0  0  0  0  0  0  0
    6.9929  -49.0047  -24.4212 C   0  0  0  0  0  0  0  0  0  0  0  0
    5.8053  -49.9437  -24.5952 C   0  0  0  0  0  0  0  0  0  0  0  0
 23 24  1  0  0  0
 24 22  1  0  0  0
 22 19  1  0  0  0
 19 20  2  0  0  0
 19 21  2  0  0  0
 19 17  1  0  0  0
 17 11  1  0  0  0
 11 12  2  0  0  0
 12 13  1  0  0  0
 13 14  2  0  0  0
 14 15  1  0  0  0
 15 16  2  0  0  0
 15  1  1  0  0  0
  1  2  2  0  0  0
  2  3  1  0  0  0
  3 25  1  0  0  0
 25 27  1  0  0  0
 27 28  2  0  0  0
 28 29  1  0  0  0
 29 30  2  0  0  0
 30 31  1  0  0  0
 31 32  2  0  0  0
  3  4  2  0  0  0
  4  5  1  0  0  0
  5  6  2  0  0  0
  6  7  1  0  0  0
  7  8  2  0  0  0
  8 35  1  0  0  0
 35 36  1  0  0  0
 36 37  1  0  0  0
 37 38  1  0  0  0
 38 39  1  0  0  0
 39 40  1  0  0  0
 40 41  1  0  0  0
 41 42  1  0  0  0
 42 43  1  0  0  0
 43 44  1  0  0  0
  8  9  1  0  0  0
  9 33  1  0  0  0
 33 34  1  0  0  0
  9 10  2  0  0  0
 16 11  1  0  0  0
  6  1  1  0  0  0
 44 39  1  0  0  0
 32 27  1  0  0  0
 10  5  1  0  0  0
 17 18  1  0  0  0
 25 26  1  0  0  0
M  END
> <minimizedAffinity>
-7.41822

> <CNNscore>
0.4680764675

> <CNNaffinity>
7.4195365906

> <CNN_VS>
3.4729104042

> <CNNaffinity_variance>
0.1744739711

$$$$
[H]c1c([H])c([H])c(N([H])c2nc(-c3c([H])c([H])c([H])c(N([H])S(=O)(=O)C([H])([H])C([H])([H])C([H])([H])[H])c3[H])c3c([H])c(OC([H])([H])C([H])([H])C([H])([H])N4C([H])([H])C([H])([H])OC([H])([H])C4([H])[H])c(OC([H])([H])[H])c([H])c3n2)c([H])c1[H]


 44 48  0  0  0  0  0  0  0  0999 V2000
    0.6349  -50.6744  -19.0374 C   0  0  0  0  0  0  0  0  0  0  0  0
    0.3999  -50.6933  -17.6888 N   0  0  0  0  0  0  0  0  0  0  0  0
   -0.3725  -51.5990  -17.0602 C   0  0  0  0  0  0  0  0  0  0  0  0
   -0.9490  -52.5461  -17.8074 N   0  0  0  0  0  0  0  0  0  0  0  0
   -0.7626  -52.5871  -19.1201 C   0  0  0  0  0  0  0  0  0  0  0  0
    0.0413  -51.6481  -19.7870 C   0  0  0  0  0  0  0  0  0  0  0  0
    0.2409  -51.7082  -21.1464 C   0  0  0  0  0  0  0  0  0  0  0  0
   -0.3754  -52.7219  -21.8579 C   0  0  0  0  0  0  0  0  0  0  0  0
   -1.1662  -53.6486  -21.2292 C   0  0  0  0  0  0  0  0  0  0  0  0
   -1.3708  -53.5962  -19.8577 C   0  0  0  0  0  0  0  0  0  0  0  0
    2.4440  -48.6587  -21.6094 C   0  0  0  0  0  0  0  0  0  0  0  0
    3.0783  -47.7563  -20.8075 C   0  0  0  0  0  0  0  0  0  0  0  0
    2.9420  -47.7724  -19.4135 C   0  0  0  0  0  0  0  0  0  0  0  0
    2.1507  -48.7178  -18.8109 C   0  0  0  0  0  0  0  0  0  0  0  0
    1.5003  -49.6385  -19.5812 C   0  0  0  0  0  0  0  0  0  0  0  0
    1.6524  -49.5981  -20.9445 C   0  0  0  0  0  0  0  0  0  0  0  0
    2.5902  -48.6843  -23.0138 N   0  0  0  0  0  0  0  0  0  0  0  0
    1.6359  -48.5821  -23.5199 H   0  0  0  0  0  0  0  0  0  0  0  0
    3.9841  -48.8436  -23.9522 S   0  0  0  0  0  0  0  0  0  0  0  0
    3.6551  -48.2870  -25.3367 O   0  0  0  0  0  0  0  0  0  0  0  0
    5.1304  -48.0015  -23.4391 O   0  0  0  0  0  0  0  0  0  0  0  0
    4.4588  -50.5281  -24.1330 C   0  0  0  0  0  0  0  0  0  0  0  0
    5.3520  -50.9678  -21.8604 C   0  0  0  0  0  0  0  0  0  0  0  0
    4.2253  -51.2510  -22.8105 C   0  0  0  0  0  0  0  0  0  0  0  0
   -0.5144  -51.4276  -15.6733 N   0  0  0  0  0  0  0  0  0  0  0  0
   -1.4614  -51.5304  -15.2357 H   0  0  0  0  0  0  0  0  0  0  0  0
    0.5574  -51.1194  -14.8167 C   0  0  0  0  0  0  0  0  0  0  0  0
    1.4233  -52.1627  -14.4301 C   0  0  0  0  0  0  0  0  0  0  0  0
    2.4452  -51.8715  -13.5743 C   0  0  0  0  0  0  0  0  0  0  0  0
    2.6532  -50.6011  -13.0821 C   0  0  0  0  0  0  0  0  0  0  0  0
    1.8001  -49.6205  -13.4745 C   0  0  0  0  0  0  0  0  0  0  0  0
    0.7343  -49.8490  -14.3465 C   0  0  0  0  0  0  0  0  0  0  0  0
   -1.7991  -54.6786  -21.9156 O   0  0  0  0  0  0  0  0  0  0  0  0
   -1.1941  -55.4080  -22.9425 C   0  0  0  0  0  0  0  0  0  0  0  0
   -0.1910  -52.7987  -23.2179 O   0  0  0  0  0  0  0  0  0  0  0  0
    1.0515  -52.6798  -23.8724 C   0  0  0  0  0  0  0  0  0  0  0  0
    0.8722  -52.7807  -25.3733 C   0  0  0  0  0  0  0  0  0  0  0  0
   -0.2006  -53.7886  -25.7023 C   0  0  0  0  0  0  0  0  0  0  0  0
   -0.6986  -53.5589  -27.0307 N   0  0  0  0  0  0  0  0  0  0  0  0
    0.3566  -53.1950  -27.9670 C   0  0  0  0  0  0  0  0  0  0  0  0
   -0.2204  -52.7369  -29.2844 C   0  0  0  0  0  0  0  0  0  0  0  0
   -1.5683  -53.1175  -29.3741 O   0  0  0  0  0  0  0  0  0  0  0  0
   -2.3592  -52.5474  -28.4015 C   0  0  0  0  0  0  0  0  0  0  0  0
   -1.6701  -52.5067  -27.0429 C   0  0  0  0  0  0  0  0  0  0  0  0
 23 24  1  0  0  0
 24 22  1  0  0  0
 22 19  1  0  0  0
 19 20  2  0  0  0
 19 21  2  0  0  0
 19 17  1  0  0  0
 17 11  1  0  0  0
 11 12  2  0  0  0
 12 13  1  0  0  0
 13 14  2  0  0  0
 14 15  1  0  0  0
 15 16  2  0  0  0
 15  1  1  0  0  0
  1  2  2  0  0  0
  2  3  1  0  0  0
  3 25  1  0  0  0
 25 27  1  0  0  0
 27 28  2  0  0  0
 28 29  1  0  0  0
 29 30  2  0  0  0
 30 31  1  0  0  0
 31 32  2  0  0  0
  3  4  2  0  0  0
  4  5  1  0  0  0
  5  6  2  0  0  0
  6  7  1  0  0  0
  7  8  2  0  0  0
  8 35  1  0  0  0
 35 36  1  0  0  0
 36 37  1  0  0  0
 37 38  1  0  0  0
 38 39  1  0  0  0
 39 40  1  0  0  0
 40 41  1  0  0  0
 41 42  1  0  0  0
 42 43  1  0  0  0
 43 44  1  0  0  0
  8  9  1  0  0  0
  9 33  1  0  0  0
 33 34  1  0  0  0
  9 10  2  0  0  0
 16 11  1  0  0  0
  6  1  1  0  0  0
 44 39  1  0  0  0
 32 27  1  0  0  0
 10  5  1  0  0  0
 17 18  1  0  0  0
 25 26  1  0  0  0
M  END
> <minimizedAffinity>
-7.62842

> <CNNscore>
0.4204219878

> <CNNaffinity>
7.5237145424

> <CNN_VS>
3.1631350517

> <CNNaffinity_variance>
0.0801736414

$$$$
[H]c1c([H])c([H])c(N([H])c2nc(-c3c([H])c([H])c([H])c(N([H])S(=O)(=O)C([H])([H])C([H])([H])C([H])([H])[H])c3[H])c3c([H])c(OC([H])([H])C([H])([H])C([H])([H])N4C([H])([H])C([H])([H])OC([H])([H])C4([H])[H])c(OC([H])([H])[H])c([H])c3n2)c([H])c1[H]


 44 48  0  0  0  0  0  0  0  0999 V2000
    1.5686  -52.3772  -23.4208 C   0  0  0  0  0  0  0  0  0  0  0  0
    0.8558  -52.9690  -24.4288 N   0  0  0  0  0  0  0  0  0  0  0  0
   -0.2817  -53.6669  -24.2528 C   0  0  0  0  0  0  0  0  0  0  0  0
   -0.7464  -53.7889  -23.0051 N   0  0  0  0  0  0  0  0  0  0  0  0
   -0.1059  -53.2395  -21.9817 C   0  0  0  0  0  0  0  0  0  0  0  0
    1.0813  -52.5087  -22.1529 C   0  0  0  0  0  0  0  0  0  0  0  0
    1.7298  -51.9296  -21.0873 C   0  0  0  0  0  0  0  0  0  0  0  0
    1.1876  -52.0840  -19.8240 C   0  0  0  0  0  0  0  0  0  0  0  0
    0.0311  -52.7946  -19.6319 C   0  0  0  0  0  0  0  0  0  0  0  0
   -0.6305  -53.3801  -20.7021 C   0  0  0  0  0  0  0  0  0  0  0  0
    3.6949  -49.5694  -24.6640 C   0  0  0  0  0  0  0  0  0  0  0  0
    4.9359  -50.0938  -24.4531 C   0  0  0  0  0  0  0  0  0  0  0  0
    5.1232  -51.3692  -23.9049 C   0  0  0  0  0  0  0  0  0  0  0  0
    4.0383  -52.1359  -23.5614 C   0  0  0  0  0  0  0  0  0  0  0  0
    2.7798  -51.6446  -23.7585 C   0  0  0  0  0  0  0  0  0  0  0  0
    2.6270  -50.3917  -24.2971 C   0  0  0  0  0  0  0  0  0  0  0  0
    3.4785  -48.3004  -25.2447 N   0  0  0  0  0  0  0  0  0  0  0  0
    3.0480  -47.6012  -24.5356 H   0  0  0  0  0  0  0  0  0  0  0  0
    3.7888  -47.7636  -26.8146 S   0  0  0  0  0  0  0  0  0  0  0  0
    3.7093  -48.9864  -27.7274 O   0  0  0  0  0  0  0  0  0  0  0  0
    2.7318  -46.8093  -27.3229 O   0  0  0  0  0  0  0  0  0  0  0  0
    5.3995  -47.0704  -26.9596 C   0  0  0  0  0  0  0  0  0  0  0  0
    5.4196  -45.2041  -25.3247 C   0  0  0  0  0  0  0  0  0  0  0  0
    5.8659  -46.6140  -25.5811 C   0  0  0  0  0  0  0  0  0  0  0  0
   -0.8454  -54.2242  -25.4124 N   0  0  0  0  0  0  0  0  0  0  0  0
   -1.5005  -55.0382  -25.3268 H   0  0  0  0  0  0  0  0  0  0  0  0
   -0.5799  -53.7488  -26.7089 C   0  0  0  0  0  0  0  0  0  0  0  0
    0.5513  -54.2505  -27.3845 C   0  0  0  0  0  0  0  0  0  0  0  0
    0.8279  -53.7674  -28.6300 C   0  0  0  0  0  0  0  0  0  0  0  0
    0.0423  -52.8135  -29.2403 C   0  0  0  0  0  0  0  0  0  0  0  0
   -1.0390  -52.3519  -28.5611 C   0  0  0  0  0  0  0  0  0  0  0  0
   -1.3792  -52.8021  -27.2844 C   0  0  0  0  0  0  0  0  0  0  0  0
   -0.5387  -52.9680  -18.3757 O   0  0  0  0  0  0  0  0  0  0  0  0
   -0.7422  -51.9240  -17.4696 C   0  0  0  0  0  0  0  0  0  0  0  0
    1.8212  -51.5154  -18.7448 O   0  0  0  0  0  0  0  0  0  0  0  0
    3.0425  -50.8143  -18.8026 C   0  0  0  0  0  0  0  0  0  0  0  0
    2.8032  -49.3223  -18.6950 C   0  0  0  0  0  0  0  0  0  0  0  0
    4.0429  -48.6325  -18.1827 C   0  0  0  0  0  0  0  0  0  0  0  0
    3.7136  -47.8072  -17.0531 N   0  0  0  0  0  0  0  0  0  0  0  0
    2.4957  -48.2409  -16.3814 C   0  0  0  0  0  0  0  0  0  0  0  0
    2.0522  -47.2283  -15.3536 C   0  0  0  0  0  0  0  0  0  0  0  0
    3.1013  -46.3383  -15.0756 O   0  0  0  0  0  0  0  0  0  0  0  0
    3.4983  -45.6074  -16.1731 C   0  0  0  0  0  0  0  0  0  0  0  0
    3.5283  -46.4429  -17.4473 C   0  0  0  0  0  0  0  0  0  0  0  0
 23 24  1  0  0  0
 24 22  1  0  0  0
 22 19  1  0  0  0
 19 20  2  0  0  0
 19 21  2  0  0  0
 19 17  1  0  0  0
 17 11  1  0  0  0
 11 12  2  0  0  0
 12 13  1  0  0  0
 13 14  2  0  0  0
 14 15  1  0  0  0
 15 16  2  0  0  0
 15  1  1  0  0  0
  1  2  2  0  0  0
  2  3  1  0  0  0
  3 25  1  0  0  0
 25 27  1  0  0  0
 27 28  2  0  0  0
 28 29  1  0  0  0
 29 30  2  0  0  0
 30 31  1  0  0  0
 31 32  2  0  0  0
  3  4  2  0  0  0
  4  5  1  0  0  0
  5  6  2  0  0  0
  6  7  1  0  0  0
  7  8  2  0  0  0
  8 35  1  0  0  0
 35 36  1  0  0  0
 36 37  1  0  0  0
 37 38  1  0  0  0
 38 39  1  0  0  0
 39 40  1  0  0  0
 40 41  1  0  0  0
 41 42  1  0  0  0
 42 43  1  0  0  0
 43 44  1  0  0  0
  8  9  1  0  0  0
  9 33  1  0  0  0
 33 34  1  0  0  0
  9 10  2  0  0  0
 16 11  1  0  0  0
  6  1  1  0  0  0
 44 39  1  0  0  0
 32 27  1  0  0  0
 10  5  1  0  0  0
 17 18  1  0  0  0
 25 26  1  0  0  0
M  END
> <minimizedAffinity>
-7.34591

> <CNNscore>
0.3898968101

> <CNNaffinity>
7.4126067162

> <CNN_VS>
2.8901517391

> <CNNaffinity_variance>
0.0642360672

$$$$
[H]c1c([H])c([H])c(N([H])c2nc(-c3c([H])c([H])c([H])c(N([H])S(=O)(=O)C([H])([H])C([H])([H])C([H])([H])[H])c3[H])c3c([H])c(OC([H])([H])C([H])([H])C([H])([H])N4C([H])([H])C([H])([H])OC([H])([H])C4([H])[H])c(OC([H])([H])[H])c([H])c3n2)c([H])c1[H]


 44 48  0  0  0  0  0  0  0  0999 V2000
    1.6614  -52.3613  -23.1001 C   0  0  0  0  0  0  0  0  0  0  0  0
    0.9062  -52.9420  -24.0834 N   0  0  0  0  0  0  0  0  0  0  0  0
   -0.2809  -53.5434  -23.8807 C   0  0  0  0  0  0  0  0  0  0  0  0
   -0.7538  -53.5741  -22.6305 N   0  0  0  0  0  0  0  0  0  0  0  0
   -0.0739  -53.0295  -21.6302 C   0  0  0  0  0  0  0  0  0  0  0  0
    1.1653  -52.3989  -21.8294 C   0  0  0  0  0  0  0  0  0  0  0  0
    1.8554  -51.8235  -20.7882 C   0  0  0  0  0  0  0  0  0  0  0  0
    1.3027  -51.8799  -19.5213 C   0  0  0  0  0  0  0  0  0  0  0  0
    0.0957  -52.4918  -19.3020 C   0  0  0  0  0  0  0  0  0  0  0  0
   -0.6080  -53.0728  -20.3476 C   0  0  0  0  0  0  0  0  0  0  0  0
    4.0529  -49.6470  -24.0297 C   0  0  0  0  0  0  0  0  0  0  0  0
    5.2032  -50.3691  -24.1515 C   0  0  0  0  0  0  0  0  0  0  0  0
    5.2409  -51.7531  -23.9387 C   0  0  0  0  0  0  0  0  0  0  0  0
    4.0959  -52.4275  -23.5963 C   0  0  0  0  0  0  0  0  0  0  0  0
    2.9247  -51.7381  -23.4657 C   0  0  0  0  0  0  0  0  0  0  0  0
    2.9181  -50.3827  -23.6801 C   0  0  0  0  0  0  0  0  0  0  0  0
    3.9814  -48.2573  -24.2703 N   0  0  0  0  0  0  0  0  0  0  0  0
    4.1896  -48.0170  -25.3077 H   0  0  0  0  0  0  0  0  0  0  0  0
    3.6311  -46.9935  -23.2077 S   0  0  0  0  0  0  0  0  0  0  0  0
    3.5415  -45.7188  -24.0457 O   0  0  0  0  0  0  0  0  0  0  0  0
    2.2769  -47.1430  -22.5519 O   0  0  0  0  0  0  0  0  0  0  0  0
    4.9018  -46.7784  -22.0098 C   0  0  0  0  0  0  0  0  0  0  0  0
    7.1201  -47.7175  -22.6039 C   0  0  0  0  0  0  0  0  0  0  0  0
    6.2211  -46.5224  -22.7309 C   0  0  0  0  0  0  0  0  0  0  0  0
   -0.8848  -54.1077  -25.0164 N   0  0  0  0  0  0  0  0  0  0  0  0
   -1.6031  -54.8619  -24.8969 H   0  0  0  0  0  0  0  0  0  0  0  0
   -0.5793  -53.7163  -26.3320 C   0  0  0  0  0  0  0  0  0  0  0  0
    0.4265  -54.4238  -27.0217 C   0  0  0  0  0  0  0  0  0  0  0  0
    0.7458  -54.0255  -28.2869 C   0  0  0  0  0  0  0  0  0  0  0  0
    0.1206  -52.9633  -28.9036 C   0  0  0  0  0  0  0  0  0  0  0  0
   -0.8429  -52.3039  -28.2105 C   0  0  0  0  0  0  0  0  0  0  0  0
   -1.2182  -52.6579  -26.9134 C   0  0  0  0  0  0  0  0  0  0  0  0
   -0.4860  -52.5654  -18.0415 O   0  0  0  0  0  0  0  0  0  0  0  0
   -1.7921  -53.0092  -17.8187 C   0  0  0  0  0  0  0  0  0  0  0  0
    1.9772  -51.3132  -18.4662 O   0  0  0  0  0  0  0  0  0  0  0  0
    2.0771  -49.9288  -18.2215 C   0  0  0  0  0  0  0  0  0  0  0  0
    1.7897  -49.6254  -16.7654 C   0  0  0  0  0  0  0  0  0  0  0  0
    0.3009  -49.5833  -16.5271 C   0  0  0  0  0  0  0  0  0  0  0  0
   -0.0358  -50.3879  -15.3849 N   0  0  0  0  0  0  0  0  0  0  0  0
   -0.3150  -49.5865  -14.2007 C   0  0  0  0  0  0  0  0  0  0  0  0
   -0.4351  -50.4557  -12.9725 C   0  0  0  0  0  0  0  0  0  0  0  0
   -0.5996  -51.7974  -13.3506 O   0  0  0  0  0  0  0  0  0  0  0  0
    0.4707  -52.2969  -14.0586 C   0  0  0  0  0  0  0  0  0  0  0  0
    1.0278  -51.2891  -15.0569 C   0  0  0  0  0  0  0  0  0  0  0  0
 23 24  1  0  0  0
 24 22  1  0  0  0
 22 19  1  0  0  0
 19 20  2  0  0  0
 19 21  2  0  0  0
 19 17  1  0  0  0
 17 11  1  0  0  0
 11 12  2  0  0  0
 12 13  1  0  0  0
 13 14  2  0  0  0
 14 15  1  0  0  0
 15 16  2  0  0  0
 15  1  1  0  0  0
  1  2  2  0  0  0
  2  3  1  0  0  0
  3 25  1  0  0  0
 25 27  1  0  0  0
 27 28  2  0  0  0
 28 29  1  0  0  0
 29 30  2  0  0  0
 30 31  1  0  0  0
 31 32  2  0  0  0
  3  4  2  0  0  0
  4  5  1  0  0  0
  5  6  2  0  0  0
  6  7  1  0  0  0
  7  8  2  0  0  0
  8 35  1  0  0  0
 35 36  1  0  0  0
 36 37  1  0  0  0
 37 38  1  0  0  0
 38 39  1  0  0  0
 39 40  1  0  0  0
 40 41  1  0  0  0
 41 42  1  0  0  0
 42 43  1  0  0  0
 43 44  1  0  0  0
  8  9  1  0  0  0
  9 33  1  0  0  0
 33 34  1  0  0  0
  9 10  2  0  0  0
 16 11  1  0  0  0
  6  1  1  0  0  0
 44 39  1  0  0  0
 32 27  1  0  0  0
 10  5  1  0  0  0
 17 18  1  0  0  0
 25 26  1  0  0  0
M  END
> <minimizedAffinity>
-7.30058

> <CNNscore>
0.3898468018

> <CNNaffinity>
7.6142754555

> <CNN_VS>
2.9684009552

> <CNNaffinity_variance>
0.0394465178

$$$$
[H]c1nc(N([H])c2c([H])c([H])c(F)c(Cl)c2[H])c2c([H])c(OC([H])([H])C([H])([H])C([H])([H])N3C([H])([H])C([H])([H])C([H])([H])C3([H])[H])c(OC([H])([H])[H])c([H])c2n1


 31 34  0  0  0  0  0  0  0  0999 V2000
   -0.1560  -52.1023  -19.5138 C   0  0  0  0  0  0  0  0  0  0  0  0
   -0.7609  -53.2573  -19.9309 C   0  0  0  0  0  0  0  0  0  0  0  0
   -0.7498  -53.6389  -21.2512 C   0  0  0  0  0  0  0  0  0  0  0  0
   -1.3342  -54.7619  -21.6880 N   0  0  0  0  0  0  0  0  0  0  0  0
   -1.3196  -55.1265  -22.9831 C   0  0  0  0  0  0  0  0  0  0  0  0
   -0.7119  -54.3704  -23.8975 N   0  0  0  0  0  0  0  0  0  0  0  0
   -0.0981  -53.2210  -23.5379 C   0  0  0  0  0  0  0  0  0  0  0  0
   -0.1082  -52.8338  -22.1955 C   0  0  0  0  0  0  0  0  0  0  0  0
    0.4945  -51.6706  -21.7431 C   0  0  0  0  0  0  0  0  0  0  0  0
    0.5041  -51.2552  -20.4219 C   0  0  0  0  0  0  0  0  0  0  0  0
   -0.9765  -52.4482  -17.2625 C   0  0  0  0  0  0  0  0  0  0  0  0
   -0.1753  -51.7311  -18.1818 O   0  0  0  0  0  0  0  0  0  0  0  0
    0.5881  -52.4208  -24.4678 N   0  0  0  0  0  0  0  0  0  0  0  0
    1.2810  -51.6680  -24.2458 H   0  0  0  0  0  0  0  0  0  0  0  0
    0.3688  -52.6010  -25.8822 C   0  0  0  0  0  0  0  0  0  0  0  0
    1.3456  -52.8414  -26.8030 C   0  0  0  0  0  0  0  0  0  0  0  0
    1.0276  -52.9656  -28.1541 C   0  0  0  0  0  0  0  0  0  0  0  0
   -0.2640  -52.8533  -28.6031 C   0  0  0  0  0  0  0  0  0  0  0  0
   -0.5672  -52.9759  -29.9223 F   0  0  0  0  0  0  0  0  0  0  0  0
   -1.2690  -52.6118  -27.6919 C   0  0  0  0  0  0  0  0  0  0  0  0
   -2.9460  -52.4617  -28.2416 Cl  0  0  0  0  0  0  0  0  0  0  0  0
   -0.9470  -52.4902  -26.3627 C   0  0  0  0  0  0  0  0  0  0  0  0
    1.1013  -50.1122  -19.9822 O   0  0  0  0  0  0  0  0  0  0  0  0
    1.1449  -48.8221  -20.3966 C   0  0  0  0  0  0  0  0  0  0  0  0
    2.4831  -48.2747  -20.8354 C   0  0  0  0  0  0  0  0  0  0  0  0
    2.6895  -48.7429  -22.2598 C   0  0  0  0  0  0  0  0  0  0  0  0
    3.9946  -49.2803  -22.4906 N   0  0  0  0  0  0  0  0  0  0  0  0
    4.2250  -49.6858  -23.8582 C   0  0  0  0  0  0  0  0  0  0  0  0
    3.8521  -51.1332  -23.9513 C   0  0  0  0  0  0  0  0  0  0  0  0
    4.1262  -51.6426  -22.5535 C   0  0  0  0  0  0  0  0  0  0  0  0
    4.2110  -50.4348  -21.6678 C   0  0  0  0  0  0  0  0  0  0  0  0
 11 12  1  0  0  0
 12  1  1  0  0  0
  1  2  2  0  0  0
  2  3  1  0  0  0
  3  4  2  0  0  0
  4  5  1  0  0  0
  5  6  2  0  0  0
  6  7  1  0  0  0
  7 13  1  0  0  0
 13 15  1  0  0  0
 15 16  2  0  0  0
 16 17  1  0  0  0
 17 18  2  0  0  0
 18 19  1  0  0  0
 18 20  1  0  0  0
 20 21  1  0  0  0
 20 22  2  0  0  0
  7  8  2  0  0  0
  8  9  1  0  0  0
  9 10  2  0  0  0
 10 23  1  0  0  0
 23 24  1  0  0  0
 24 25  1  0  0  0
 25 26  1  0  0  0
 26 27  1  0  0  0
 27 28  1  0  0  0
 28 29  1  0  0  0
 29 30  1  0  0  0
 30 31  1  0  0  0
 10  1  1  0  0  0
 31 27  1  0  0  0
  8  3  1  0  0  0
 22 15  1  0  0  0
 13 14  1  0  0  0
M  END
> <minimizedAffinity>
-8.16612

> <CNNscore>
0.9826692939

> <CNNaffinity>
7.7750425339

> <CNN_VS>
7.6402955055

> <CNNaffinity_variance>
0.0550343804

$$$$
[H]c1nc(N([H])c2c([H])c([H])c(F)c(Cl)c2[H])c2c([H])c(OC([H])([H])C([H])([H])C([H])([H])N3C([H])([H])C([H])([H])C([H])([H])C3([H])[H])c(OC([H])([H])[H])c([H])c2n1


 31 34  0  0  0  0  0  0  0  0999 V2000
   -0.1081  -51.9897  -19.3658 C   0  0  0  0  0  0  0  0  0  0  0  0
   -0.6063  -53.1923  -19.7896 C   0  0  0  0  0  0  0  0  0  0  0  0
   -0.6486  -53.5238  -21.1227 C   0  0  0  0  0  0  0  0  0  0  0  0
   -1.1316  -54.6915  -21.5662 N   0  0  0  0  0  0  0  0  0  0  0  0
   -1.1705  -55.0066  -22.8738 C   0  0  0  0  0  0  0  0  0  0  0  0
   -0.7217  -54.1534  -23.7944 N   0  0  0  0  0  0  0  0  0  0  0  0
   -0.2183  -52.9534  -23.4288 C   0  0  0  0  0  0  0  0  0  0  0  0
   -0.1740  -52.6170  -22.0734 C   0  0  0  0  0  0  0  0  0  0  0  0
    0.3238  -51.4077  -21.6140 C   0  0  0  0  0  0  0  0  0  0  0  0
    0.3827  -51.0403  -20.2799 C   0  0  0  0  0  0  0  0  0  0  0  0
   -0.9903  -52.2718  -17.1290 C   0  0  0  0  0  0  0  0  0  0  0  0
   -0.0718  -51.6699  -18.0209 O   0  0  0  0  0  0  0  0  0  0  0  0
    0.3022  -52.0466  -24.3684 N   0  0  0  0  0  0  0  0  0  0  0  0
    0.7976  -51.1494  -24.1554 H   0  0  0  0  0  0  0  0  0  0  0  0
    0.1816  -52.3153  -25.7807 C   0  0  0  0  0  0  0  0  0  0  0  0
    1.2263  -52.5327  -26.6298 C   0  0  0  0  0  0  0  0  0  0  0  0
    0.9997  -52.7494  -27.9876 C   0  0  0  0  0  0  0  0  0  0  0  0
   -0.2671  -52.7532  -28.5145 C   0  0  0  0  0  0  0  0  0  0  0  0
   -0.4809  -52.9655  -29.8399 F   0  0  0  0  0  0  0  0  0  0  0  0
   -1.3394  -52.5371  -27.6767 C   0  0  0  0  0  0  0  0  0  0  0  0
   -2.9865  -52.5360  -28.3279 Cl  0  0  0  0  0  0  0  0  0  0  0  0
   -1.1073  -52.3239  -26.3403 C   0  0  0  0  0  0  0  0  0  0  0  0
    0.8764  -49.8514  -19.8336 O   0  0  0  0  0  0  0  0  0  0  0  0
    1.3294  -48.7128  -20.4137 C   0  0  0  0  0  0  0  0  0  0  0  0
    2.7958  -48.3846  -20.2557 C   0  0  0  0  0  0  0  0  0  0  0  0
    2.9574  -47.8120  -18.8640 C   0  0  0  0  0  0  0  0  0  0  0  0
    3.9896  -48.4530  -18.1096 N   0  0  0  0  0  0  0  0  0  0  0  0
    4.1547  -49.8544  -18.4204 C   0  0  0  0  0  0  0  0  0  0  0  0
    3.2874  -50.6165  -17.4666 C   0  0  0  0  0  0  0  0  0  0  0  0
    3.2547  -49.7186  -16.2495 C   0  0  0  0  0  0  0  0  0  0  0  0
    3.7098  -48.3639  -16.7059 C   0  0  0  0  0  0  0  0  0  0  0  0
 11 12  1  0  0  0
 12  1  1  0  0  0
  1  2  2  0  0  0
  2  3  1  0  0  0
  3  4  2  0  0  0
  4  5  1  0  0  0
  5  6  2  0  0  0
  6  7  1  0  0  0
  7 13  1  0  0  0
 13 15  1  0  0  0
 15 16  2  0  0  0
 16 17  1  0  0  0
 17 18  2  0  0  0
 18 19  1  0  0  0
 18 20  1  0  0  0
 20 21  1  0  0  0
 20 22  2  0  0  0
  7  8  2  0  0  0
  8  9  1  0  0  0
  9 10  2  0  0  0
 10 23  1  0  0  0
 23 24  1  0  0  0
 24 25  1  0  0  0
 25 26  1  0  0  0
 26 27  1  0  0  0
 27 28  1  0  0  0
 28 29  1  0  0  0
 29 30  1  0  0  0
 30 31  1  0  0  0
 10  1  1  0  0  0
 31 27  1  0  0  0
  8  3  1  0  0  0
 22 15  1  0  0  0
 13 14  1  0  0  0
M  END
> <minimizedAffinity>
-8.00889

> <CNNscore>
0.9469631910

> <CNNaffinity>
7.4430093765

> <CNN_VS>
7.0482559204

> <CNNaffinity_variance>
0.0181660056

$$$$
[H]c1nc(N([H])c2c([H])c([H])c(F)c(Cl)c2[H])c2c([H])c(OC([H])([H])C([H])([H])C([H])([H])N3C([H])([H])C([H])([H])C([H])([H])C3([H])[H])c(OC([H])([H])[H])c([H])c2n1


 31 34  0  0  0  0  0  0  0  0999 V2000
    1.8025  -50.7064  -22.3216 C   0  0  0  0  0  0  0  0  0  0  0  0
    0.8144  -51.5051  -22.8312 C   0  0  0  0  0  0  0  0  0  0  0  0
    0.0878  -52.3513  -22.0282 C   0  0  0  0  0  0  0  0  0  0  0  0
   -0.8829  -53.1448  -22.4990 N   0  0  0  0  0  0  0  0  0  0  0  0
   -1.5880  -53.9714  -21.7052 C   0  0  0  0  0  0  0  0  0  0  0  0
   -1.3430  -54.0334  -20.3963 N   0  0  0  0  0  0  0  0  0  0  0  0
   -0.3791  -53.2644  -19.8426 C   0  0  0  0  0  0  0  0  0  0  0  0
    0.3586  -52.4031  -20.6587 C   0  0  0  0  0  0  0  0  0  0  0  0
    1.3649  -51.5833  -20.1725 C   0  0  0  0  0  0  0  0  0  0  0  0
    2.1163  -50.7185  -20.9507 C   0  0  0  0  0  0  0  0  0  0  0  0
    3.4975  -50.3916  -24.0214 C   0  0  0  0  0  0  0  0  0  0  0  0
    2.5254  -49.8597  -23.1419 O   0  0  0  0  0  0  0  0  0  0  0  0
   -0.1220  -53.2728  -18.4607 N   0  0  0  0  0  0  0  0  0  0  0  0
    0.6439  -53.7965  -17.9758 H   0  0  0  0  0  0  0  0  0  0  0  0
   -0.9510  -52.5056  -17.5633 C   0  0  0  0  0  0  0  0  0  0  0  0
   -0.5844  -51.3375  -16.9624 C   0  0  0  0  0  0  0  0  0  0  0  0
   -1.4521  -50.6932  -16.0826 C   0  0  0  0  0  0  0  0  0  0  0  0
   -2.6924  -51.2026  -15.7922 C   0  0  0  0  0  0  0  0  0  0  0  0
   -3.5338  -50.5687  -14.9333 F   0  0  0  0  0  0  0  0  0  0  0  0
   -3.0864  -52.3811  -16.3877 C   0  0  0  0  0  0  0  0  0  0  0  0
   -4.6817  -53.0633  -16.0321 Cl  0  0  0  0  0  0  0  0  0  0  0  0
   -2.2253  -53.0097  -17.2529 C   0  0  0  0  0  0  0  0  0  0  0  0
    3.1022  -49.9122  -20.4667 O   0  0  0  0  0  0  0  0  0  0  0  0
    3.2470  -48.5808  -20.2559 C   0  0  0  0  0  0  0  0  0  0  0  0
    2.7869  -48.0304  -18.9262 C   0  0  0  0  0  0  0  0  0  0  0  0
    3.5012  -48.8345  -17.8613 C   0  0  0  0  0  0  0  0  0  0  0  0
    2.6262  -49.6938  -17.1254 N   0  0  0  0  0  0  0  0  0  0  0  0
    2.3179  -49.2139  -15.7978 C   0  0  0  0  0  0  0  0  0  0  0  0
    3.3298  -49.8152  -14.8721 C   0  0  0  0  0  0  0  0  0  0  0  0
    3.6806  -51.1180  -15.5564 C   0  0  0  0  0  0  0  0  0  0  0  0
    3.2132  -50.9938  -16.9765 C   0  0  0  0  0  0  0  0  0  0  0  0
 11 12  1  0  0  0
 12  1  1  0  0  0
  1  2  2  0  0  0
  2  3  1  0  0  0
  3  4  2  0  0  0
  4  5  1  0  0  0
  5  6  2  0  0  0
  6  7  1  0  0  0
  7 13  1  0  0  0
 13 15  1  0  0  0
 15 16  2  0  0  0
 16 17  1  0  0  0
 17 18  2  0  0  0
 18 19  1  0  0  0
 18 20  1  0  0  0
 20 21  1  0  0  0
 20 22  2  0  0  0
  7  8  2  0  0  0
  8  9  1  0  0  0
  9 10  2  0  0  0
 10 23  1  0  0  0
 23 24  1  0  0  0
 24 25  1  0  0  0
 25 26  1  0  0  0
 26 27  1  0  0  0
 27 28  1  0  0  0
 28 29  1  0  0  0
 29 30  1  0  0  0
 30 31  1  0  0  0
 10  1  1  0  0  0
 31 27  1  0  0  0
  8  3  1  0  0  0
 22 15  1  0  0  0
 13 14  1  0  0  0
M  END
> <minimizedAffinity>
-6.17355

> <CNNscore>
0.6732326746

> <CNNaffinity>
6.8654389381

> <CNN_VS>
4.6220378876

> <CNNaffinity_variance>
0.1594210416

$$$$
[H]c1nc(N([H])c2c([H])c([H])c(F)c(Cl)c2[H])c2c([H])c(OC([H])([H])C([H])([H])C([H])([H])N3C([H])([H])C([H])([H])C([H])([H])C3([H])[H])c(OC([H])([H])[H])c([H])c2n1


 31 34  0  0  0  0  0  0  0  0999 V2000
   -0.2257  -52.4454  -19.9120 C   0  0  0  0  0  0  0  0  0  0  0  0
   -0.7611  -53.6091  -20.3951 C   0  0  0  0  0  0  0  0  0  0  0  0
   -0.7963  -53.8799  -21.7420 C   0  0  0  0  0  0  0  0  0  0  0  0
   -1.3150  -55.0084  -22.2430 N   0  0  0  0  0  0  0  0  0  0  0  0
   -1.3465  -55.2642  -23.5637 C   0  0  0  0  0  0  0  0  0  0  0  0
   -0.8539  -54.3885  -24.4397 N   0  0  0  0  0  0  0  0  0  0  0  0
   -0.3126  -53.2251  -24.0148 C   0  0  0  0  0  0  0  0  0  0  0  0
   -0.2755  -52.9504  -22.6454 C   0  0  0  0  0  0  0  0  0  0  0  0
    0.2591  -51.7816  -22.1264 C   0  0  0  0  0  0  0  0  0  0  0  0
    0.3123  -51.4755  -20.7767 C   0  0  0  0  0  0  0  0  0  0  0  0
   -1.1551  -52.7856  -17.7026 C   0  0  0  0  0  0  0  0  0  0  0  0
   -0.1971  -52.1866  -18.5539 O   0  0  0  0  0  0  0  0  0  0  0  0
    0.2538  -52.2978  -24.9066 N   0  0  0  0  0  0  0  0  0  0  0  0
   -0.2578  -51.7439  -25.6328 H   0  0  0  0  0  0  0  0  0  0  0  0
    1.6710  -52.0300  -24.8724 C   0  0  0  0  0  0  0  0  0  0  0  0
    2.6438  -52.9727  -24.7149 C   0  0  0  0  0  0  0  0  0  0  0  0
    3.9857  -52.6007  -24.6609 C   0  0  0  0  0  0  0  0  0  0  0  0
    4.3739  -51.2888  -24.7638 C   0  0  0  0  0  0  0  0  0  0  0  0
    5.6847  -50.9330  -24.7106 F   0  0  0  0  0  0  0  0  0  0  0  0
    3.4097  -50.3178  -24.9247 C   0  0  0  0  0  0  0  0  0  0  0  0
    3.8803  -48.6156  -25.0602 Cl  0  0  0  0  0  0  0  0  0  0  0  0
    2.0899  -50.6927  -24.9764 C   0  0  0  0  0  0  0  0  0  0  0  0
    0.8423  -50.3264  -20.2719 O   0  0  0  0  0  0  0  0  0  0  0  0
    0.7469  -49.0062  -20.5652 C   0  0  0  0  0  0  0  0  0  0  0  0
    1.7804  -48.4225  -21.5001 C   0  0  0  0  0  0  0  0  0  0  0  0
    2.9606  -49.3696  -21.4765 C   0  0  0  0  0  0  0  0  0  0  0  0
    4.0844  -48.8486  -20.7615 N   0  0  0  0  0  0  0  0  0  0  0  0
    4.9588  -48.0275  -21.5672 C   0  0  0  0  0  0  0  0  0  0  0  0
    6.0125  -48.9329  -22.1263 C   0  0  0  0  0  0  0  0  0  0  0  0
    6.1199  -50.0150  -21.0744 C   0  0  0  0  0  0  0  0  0  0  0  0
    4.8802  -49.9191  -20.2350 C   0  0  0  0  0  0  0  0  0  0  0  0
 11 12  1  0  0  0
 12  1  1  0  0  0
  1  2  2  0  0  0
  2  3  1  0  0  0
  3  4  2  0  0  0
  4  5  1  0  0  0
  5  6  2  0  0  0
  6  7  1  0  0  0
  7 13  1  0  0  0
 13 15  1  0  0  0
 15 16  2  0  0  0
 16 17  1  0  0  0
 17 18  2  0  0  0
 18 19  1  0  0  0
 18 20  1  0  0  0
 20 21  1  0  0  0
 20 22  2  0  0  0
  7  8  2  0  0  0
  8  9  1  0  0  0
  9 10  2  0  0  0
 10 23  1  0  0  0
 23 24  1  0  0  0
 24 25  1  0  0  0
 25 26  1  0  0  0
 26 27  1  0  0  0
 27 28  1  0  0  0
 28 29  1  0  0  0
 29 30  1  0  0  0
 30 31  1  0  0  0
 10  1  1  0  0  0
 31 27  1  0  0  0
  8  3  1  0  0  0
 22 15  1  0  0  0
 13 14  1  0  0  0
M  END
> <minimizedAffinity>
-6.97567

> <CNNscore>
0.6285026073

> <CNNaffinity>
6.9969053268

> <CNN_VS>
4.3975734711

> <CNNaffinity_variance>
0.1248920187

$$$$
[H]c1nc(N([H])c2c([H])c([H])c(F)c(Cl)c2[H])c2c([H])c(OC([H])([H])C([H])([H])C([H])([H])N3C([H])([H])C([H])([H])C([H])([H])C3([H])[H])c(OC([H])([H])[H])c([H])c2n1


 31 34  0  0  0  0  0  0  0  0999 V2000
    0.8325  -53.5143  -26.2630 C   0  0  0  0  0  0  0  0  0  0  0  0
    0.0144  -54.4469  -25.6842 C   0  0  0  0  0  0  0  0  0  0  0  0
   -0.4268  -54.3123  -24.3896 C   0  0  0  0  0  0  0  0  0  0  0  0
   -1.2259  -55.2090  -23.7973 N   0  0  0  0  0  0  0  0  0  0  0  0
   -1.6517  -55.0694  -22.5285 C   0  0  0  0  0  0  0  0  0  0  0  0
   -1.2879  -54.0144  -21.7994 N   0  0  0  0  0  0  0  0  0  0  0  0
   -0.4827  -53.0639  -22.3240 C   0  0  0  0  0  0  0  0  0  0  0  0
   -0.0352  -53.2001  -23.6406 C   0  0  0  0  0  0  0  0  0  0  0  0
    0.7936  -52.2735  -24.2535 C   0  0  0  0  0  0  0  0  0  0  0  0
    1.2569  -52.3759  -25.5547 C   0  0  0  0  0  0  0  0  0  0  0  0
    0.4211  -53.2975  -28.6389 C   0  0  0  0  0  0  0  0  0  0  0  0
    1.2687  -53.6632  -27.5668 O   0  0  0  0  0  0  0  0  0  0  0  0
   -0.1132  -51.9177  -21.5989 N   0  0  0  0  0  0  0  0  0  0  0  0
    0.2242  -51.0119  -22.0010 H   0  0  0  0  0  0  0  0  0  0  0  0
   -0.1841  -51.9160  -20.1580 C   0  0  0  0  0  0  0  0  0  0  0  0
   -0.8025  -52.8677  -19.4020 C   0  0  0  0  0  0  0  0  0  0  0  0
   -0.8423  -52.7513  -18.0139 C   0  0  0  0  0  0  0  0  0  0  0  0
   -0.2673  -51.6888  -17.3637 C   0  0  0  0  0  0  0  0  0  0  0  0
   -0.3095  -51.5816  -16.0093 F   0  0  0  0  0  0  0  0  0  0  0  0
    0.3647  -50.7146  -18.1055 C   0  0  0  0  0  0  0  0  0  0  0  0
    1.1160  -49.3310  -17.2942 Cl  0  0  0  0  0  0  0  0  0  0  0  0
    0.3989  -50.8367  -19.4726 C   0  0  0  0  0  0  0  0  0  0  0  0
    2.0688  -51.4600  -26.1533 O   0  0  0  0  0  0  0  0  0  0  0  0
    3.4071  -51.2579  -26.2312 C   0  0  0  0  0  0  0  0  0  0  0  0
    4.1894  -51.2576  -24.9386 C   0  0  0  0  0  0  0  0  0  0  0  0
    4.5162  -49.8108  -24.6378 C   0  0  0  0  0  0  0  0  0  0  0  0
    4.4490  -49.4982  -23.2437 N   0  0  0  0  0  0  0  0  0  0  0  0
    3.4078  -50.2076  -22.5363 C   0  0  0  0  0  0  0  0  0  0  0  0
    2.1903  -49.3361  -22.5661 C   0  0  0  0  0  0  0  0  0  0  0  0
    2.7750  -47.9422  -22.6288 C   0  0  0  0  0  0  0  0  0  0  0  0
    4.2040  -48.0975  -23.0581 C   0  0  0  0  0  0  0  0  0  0  0  0
 11 12  1  0  0  0
 12  1  1  0  0  0
  1  2  2  0  0  0
  2  3  1  0  0  0
  3  4  2  0  0  0
  4  5  1  0  0  0
  5  6  2  0  0  0
  6  7  1  0  0  0
  7 13  1  0  0  0
 13 15  1  0  0  0
 15 16  2  0  0  0
 16 17  1  0  0  0
 17 18  2  0  0  0
 18 19  1  0  0  0
 18 20  1  0  0  0
 20 21  1  0  0  0
 20 22  2  0  0  0
  7  8  2  0  0  0
  8  9  1  0  0  0
  9 10  2  0  0  0
 10 23  1  0  0  0
 23 24  1  0  0  0
 24 25  1  0  0  0
 25 26  1  0  0  0
 26 27  1  0  0  0
 27 28  1  0  0  0
 28 29  1  0  0  0
 29 30  1  0  0  0
 30 31  1  0  0  0
 10  1  1  0  0  0
 31 27  1  0  0  0
  8  3  1  0  0  0
 22 15  1  0  0  0
 13 14  1  0  0  0
M  END
> <minimizedAffinity>
-7.00007

> <CNNscore>
0.6273782849

> <CNNaffinity>
7.2888655663

> <CNN_VS>
4.5728759766

> <CNNaffinity_variance>
0.0923959836

$$$$
[H]c1nc(N([H])c2c([H])c([H])c(F)c(Cl)c2[H])c2c([H])c(OC([H])([H])C([H])([H])C([H])([H])N3C([H])([H])C([H])([H])C([H])([H])C3([H])[H])c(OC([H])([H])[H])c([H])c2n1


 31 34  0  0  0  0  0  0  0  0999 V2000
   -0.5910  -52.8438  -19.5925 C   0  0  0  0  0  0  0  0  0  0  0  0
   -1.0245  -53.9434  -20.2832 C   0  0  0  0  0  0  0  0  0  0  0  0
   -0.9409  -54.0113  -21.6533 C   0  0  0  0  0  0  0  0  0  0  0  0
   -1.3582  -55.0728  -22.3551 N   0  0  0  0  0  0  0  0  0  0  0  0
   -1.2737  -55.1296  -23.6968 C   0  0  0  0  0  0  0  0  0  0  0  0
   -0.7622  -54.1132  -24.3914 N   0  0  0  0  0  0  0  0  0  0  0  0
   -0.3183  -53.0049  -23.7576 C   0  0  0  0  0  0  0  0  0  0  0  0
   -0.4021  -52.9365  -22.3646 C   0  0  0  0  0  0  0  0  0  0  0  0
    0.0276  -51.8373  -21.6379 C   0  0  0  0  0  0  0  0  0  0  0  0
   -0.0403  -51.7342  -20.2584 C   0  0  0  0  0  0  0  0  0  0  0  0
   -1.9265  -53.0140  -17.5804 C   0  0  0  0  0  0  0  0  0  0  0  0
   -0.6815  -52.7897  -18.2137 O   0  0  0  0  0  0  0  0  0  0  0  0
    0.2651  -51.9322  -24.4539 N   0  0  0  0  0  0  0  0  0  0  0  0
   -0.2451  -51.1711  -24.9602 H   0  0  0  0  0  0  0  0  0  0  0  0
    1.7005  -51.8017  -24.5158 C   0  0  0  0  0  0  0  0  0  0  0  0
    2.5779  -52.8386  -24.6376 C   0  0  0  0  0  0  0  0  0  0  0  0
    3.9514  -52.6035  -24.6530 C   0  0  0  0  0  0  0  0  0  0  0  0
    4.4662  -51.3361  -24.5484 C   0  0  0  0  0  0  0  0  0  0  0  0
    5.8071  -51.1140  -24.5644 F   0  0  0  0  0  0  0  0  0  0  0  0
    3.6000  -50.2716  -24.4256 C   0  0  0  0  0  0  0  0  0  0  0  0
    4.2350  -48.6239  -24.2884 Cl  0  0  0  0  0  0  0  0  0  0  0  0
    2.2483  -50.5119  -24.4108 C   0  0  0  0  0  0  0  0  0  0  0  0
    0.3869  -50.6525  -19.5488 O   0  0  0  0  0  0  0  0  0  0  0  0
    1.5904  -50.1640  -19.1600 C   0  0  0  0  0  0  0  0  0  0  0  0
    2.3544  -50.9416  -18.1138 C   0  0  0  0  0  0  0  0  0  0  0  0
    1.6925  -50.6363  -16.7874 C   0  0  0  0  0  0  0  0  0  0  0  0
    2.6173  -50.2088  -15.7837 N   0  0  0  0  0  0  0  0  0  0  0  0
    3.7861  -51.0509  -15.6706 C   0  0  0  0  0  0  0  0  0  0  0  0
    3.4774  -52.0863  -14.6337 C   0  0  0  0  0  0  0  0  0  0  0  0
    2.4981  -51.3739  -13.7270 C   0  0  0  0  0  0  0  0  0  0  0  0
    1.9846  -50.1932  -14.4968 C   0  0  0  0  0  0  0  0  0  0  0  0
 11 12  1  0  0  0
 12  1  1  0  0  0
  1  2  2  0  0  0
  2  3  1  0  0  0
  3  4  2  0  0  0
  4  5  1  0  0  0
  5  6  2  0  0  0
  6  7  1  0  0  0
  7 13  1  0  0  0
 13 15  1  0  0  0
 15 16  2  0  0  0
 16 17  1  0  0  0
 17 18  2  0  0  0
 18 19  1  0  0  0
 18 20  1  0  0  0
 20 21  1  0  0  0
 20 22  2  0  0  0
  7  8  2  0  0  0
  8  9  1  0  0  0
  9 10  2  0  0  0
 10 23  1  0  0  0
 23 24  1  0  0  0
 24 25  1  0  0  0
 25 26  1  0  0  0
 26 27  1  0  0  0
 27 28  1  0  0  0
 28 29  1  0  0  0
 29 30  1  0  0  0
 30 31  1  0  0  0
 10  1  1  0  0  0
 31 27  1  0  0  0
  8  3  1  0  0  0
 22 15  1  0  0  0
 13 14  1  0  0  0
M  END
> <minimizedAffinity>
-7.04408

> <CNNscore>
0.5394693613

> <CNNaffinity>
6.7140607834

> <CNN_VS>
3.6220300198

> <CNNaffinity_variance>
0.0473033525

$$$$
[H]c1nc(N([H])c2c([H])c([H])c(F)c(Cl)c2[H])c2c([H])c(OC([H])([H])C([H])([H])C([H])([H])N3C([H])([H])C([H])([H])C([H])([H])C3([H])[H])c(OC([H])([H])[H])c([H])c2n1


 31 34  0  0  0  0  0  0  0  0999 V2000
    0.2888  -51.6102  -19.3094 C   0  0  0  0  0  0  0  0  0  0  0  0
   -0.1518  -52.8765  -19.5857 C   0  0  0  0  0  0  0  0  0  0  0  0
   -0.4121  -53.2827  -20.8726 C   0  0  0  0  0  0  0  0  0  0  0  0
   -0.8453  -54.5139  -21.1725 N   0  0  0  0  0  0  0  0  0  0  0  0
   -1.0991  -54.9021  -22.4356 C   0  0  0  0  0  0  0  0  0  0  0  0
   -0.9259  -54.0611  -23.4552 N   0  0  0  0  0  0  0  0  0  0  0  0
   -0.4909  -52.8000  -23.2368 C   0  0  0  0  0  0  0  0  0  0  0  0
   -0.2250  -52.3876  -21.9287 C   0  0  0  0  0  0  0  0  0  0  0  0
    0.2213  -51.1127  -21.6175 C   0  0  0  0  0  0  0  0  0  0  0  0
    0.4942  -50.6691  -20.3342 C   0  0  0  0  0  0  0  0  0  0  0  0
   -0.4583  -51.3441  -17.0220 C   0  0  0  0  0  0  0  0  0  0  0  0
    0.5467  -51.2156  -18.0094 O   0  0  0  0  0  0  0  0  0  0  0  0
   -0.2570  -51.9000  -24.2909 N   0  0  0  0  0  0  0  0  0  0  0  0
   -0.7034  -50.9612  -24.4150 H   0  0  0  0  0  0  0  0  0  0  0  0
    0.6790  -52.2341  -25.3366 C   0  0  0  0  0  0  0  0  0  0  0  0
    2.0310  -52.3209  -25.1809 C   0  0  0  0  0  0  0  0  0  0  0  0
    2.8498  -52.6177  -26.2688 C   0  0  0  0  0  0  0  0  0  0  0  0
    2.3330  -52.8320  -27.5215 C   0  0  0  0  0  0  0  0  0  0  0  0
    3.1374  -53.1214  -28.5782 F   0  0  0  0  0  0  0  0  0  0  0  0
    0.9697  -52.7511  -27.7042 C   0  0  0  0  0  0  0  0  0  0  0  0
    0.2733  -53.0227  -29.3100 Cl  0  0  0  0  0  0  0  0  0  0  0  0
    0.1702  -52.4577  -26.6273 C   0  0  0  0  0  0  0  0  0  0  0  0
    0.9362  -49.4157  -20.0344 O   0  0  0  0  0  0  0  0  0  0  0  0
    1.4779  -48.3878  -20.7330 C   0  0  0  0  0  0  0  0  0  0  0  0
    2.9079  -48.5364  -21.1975 C   0  0  0  0  0  0  0  0  0  0  0  0
    2.8517  -48.7260  -22.6980 C   0  0  0  0  0  0  0  0  0  0  0  0
    3.9023  -48.0452  -23.3896 N   0  0  0  0  0  0  0  0  0  0  0  0
    4.1029  -46.6833  -22.9506 C   0  0  0  0  0  0  0  0  0  0  0  0
    3.2583  -45.8139  -23.8300 C   0  0  0  0  0  0  0  0  0  0  0  0
    3.2056  -46.5944  -25.1250 C   0  0  0  0  0  0  0  0  0  0  0  0
    3.6241  -47.9968  -24.7956 C   0  0  0  0  0  0  0  0  0  0  0  0
 11 12  1  0  0  0
 12  1  1  0  0  0
  1  2  2  0  0  0
  2  3  1  0  0  0
  3  4  2  0  0  0
  4  5  1  0  0  0
  5  6  2  0  0  0
  6  7  1  0  0  0
  7 13  1  0  0  0
 13 15  1  0  0  0
 15 16  2  0  0  0
 16 17  1  0  0  0
 17 18  2  0  0  0
 18 19  1  0  0  0
 18 20  1  0  0  0
 20 21  1  0  0  0
 20 22  2  0  0  0
  7  8  2  0  0  0
  8  9  1  0  0  0
  9 10  2  0  0  0
 10 23  1  0  0  0
 23 24  1  0  0  0
 24 25  1  0  0  0
 25 26  1  0  0  0
 26 27  1  0  0  0
 27 28  1  0  0  0
 28 29  1  0  0  0
 29 30  1  0  0  0
 30 31  1  0  0  0
 10  1  1  0  0  0
 31 27  1  0  0  0
  8  3  1  0  0  0
 22 15  1  0  0  0
 13 14  1  0  0  0
M  END
> <minimizedAffinity>
-7.15416

> <CNNscore>
0.4821927547

> <CNNaffinity>
7.0152616501

> <CNN_VS>
3.3827083111

> <CNNaffinity_variance>
0.2134092301

$$$$
[H]c1nc(N([H])c2c([H])c([H])c(F)c(Cl)c2[H])c2c([H])c(OC([H])([H])C([H])([H])C([H])([H])N3C([H])([H])C([H])([H])C([H])([H])C3([H])[H])c(OC([H])([H])[H])c([H])c2n1


 31 34  0  0  0  0  0  0  0  0999 V2000
    1.2182  -52.9528  -26.0433 C   0  0  0  0  0  0  0  0  0  0  0  0
    0.2842  -53.8545  -25.6089 C   0  0  0  0  0  0  0  0  0  0  0  0
   -0.1051  -53.9089  -24.2920 C   0  0  0  0  0  0  0  0  0  0  0  0
   -1.0147  -54.7810  -23.8386 N   0  0  0  0  0  0  0  0  0  0  0  0
   -1.3886  -54.8279  -22.5468 C   0  0  0  0  0  0  0  0  0  0  0  0
   -0.8584  -53.9931  -21.6529 N   0  0  0  0  0  0  0  0  0  0  0  0
    0.0666  -53.0825  -22.0301 C   0  0  0  0  0  0  0  0  0  0  0  0
    0.4614  -53.0264  -23.3692 C   0  0  0  0  0  0  0  0  0  0  0  0
    1.4043  -52.1255  -23.8387 C   0  0  0  0  0  0  0  0  0  0  0  0
    1.8200  -52.0415  -25.1572 C   0  0  0  0  0  0  0  0  0  0  0  0
    0.6210  -52.9962  -28.3891 C   0  0  0  0  0  0  0  0  0  0  0  0
    1.6002  -52.9097  -27.3717 O   0  0  0  0  0  0  0  0  0  0  0  0
    0.6156  -52.1593  -21.1235 N   0  0  0  0  0  0  0  0  0  0  0  0
    1.3742  -51.4670  -21.3268 H   0  0  0  0  0  0  0  0  0  0  0  0
    0.1333  -52.1009  -19.7651 C   0  0  0  0  0  0  0  0  0  0  0  0
   -0.6803  -53.0266  -19.1813 C   0  0  0  0  0  0  0  0  0  0  0  0
   -1.1173  -52.8555  -17.8691 C   0  0  0  0  0  0  0  0  0  0  0  0
   -0.7493  -51.7637  -17.1243 C   0  0  0  0  0  0  0  0  0  0  0  0
   -1.1790  -51.6032  -15.8447 F   0  0  0  0  0  0  0  0  0  0  0  0
    0.0732  -50.8149  -17.6915 C   0  0  0  0  0  0  0  0  0  0  0  0
    0.5649  -49.3944  -16.7547 Cl  0  0  0  0  0  0  0  0  0  0  0  0
    0.4988  -50.9908  -18.9850 C   0  0  0  0  0  0  0  0  0  0  0  0
    2.7450  -51.1515  -25.6139 O   0  0  0  0  0  0  0  0  0  0  0  0
    3.0751  -49.8676  -25.3298 C   0  0  0  0  0  0  0  0  0  0  0  0
    4.2118  -49.2500  -26.1104 C   0  0  0  0  0  0  0  0  0  0  0  0
    3.5895  -48.5946  -27.3243 C   0  0  0  0  0  0  0  0  0  0  0  0
    3.8918  -47.2005  -27.4266 N   0  0  0  0  0  0  0  0  0  0  0  0
    3.1532  -46.3740  -26.4996 C   0  0  0  0  0  0  0  0  0  0  0  0
    1.9095  -45.9319  -27.2069 C   0  0  0  0  0  0  0  0  0  0  0  0
    2.3368  -45.9093  -28.6580 C   0  0  0  0  0  0  0  0  0  0  0  0
    3.5951  -46.7214  -28.7452 C   0  0  0  0  0  0  0  0  0  0  0  0
 11 12  1  0  0  0
 12  1  1  0  0  0
  1  2  2  0  0  0
  2  3  1  0  0  0
  3  4  2  0  0  0
  4  5  1  0  0  0
  5  6  2  0  0  0
  6  7  1  0  0  0
  7 13  1  0  0  0
 13 15  1  0  0  0
 15 16  2  0  0  0
 16 17  1  0  0  0
 17 18  2  0  0  0
 18 19  1  0  0  0
 18 20  1  0  0  0
 20 21  1  0  0  0
 20 22  2  0  0  0
  7  8  2  0  0  0
  8  9  1  0  0  0
  9 10  2  0  0  0
 10 23  1  0  0  0
 23 24  1  0  0  0
 24 25  1  0  0  0
 25 26  1  0  0  0
 26 27  1  0  0  0
 27 28  1  0  0  0
 28 29  1  0  0  0
 29 30  1  0  0  0
 30 31  1  0  0  0
 10  1  1  0  0  0
 31 27  1  0  0  0
  8  3  1  0  0  0
 22 15  1  0  0  0
 13 14  1  0  0  0
M  END
> <minimizedAffinity>
-7.14860

> <CNNscore>
0.4181005657

> <CNNaffinity>
6.9618811607

> <CNN_VS>
2.9107663631

> <CNNaffinity_variance>
0.3143362999

$$$$
[H]c1nc(N([H])c2c([H])c([H])c(F)c(Cl)c2[H])c2c([H])c(OC([H])([H])C([H])([H])C([H])([H])N3C([H])([H])C([H])([H])C([H])([H])C3([H])[H])c(OC([H])([H])[H])c([H])c2n1


 31 34  0  0  0  0  0  0  0  0999 V2000
   -0.2792  -54.4840  -24.3465 C   0  0  0  0  0  0  0  0  0  0  0  0
   -1.1119  -54.5654  -23.2630 C   0  0  0  0  0  0  0  0  0  0  0  0
   -0.7993  -53.9618  -22.0686 C   0  0  0  0  0  0  0  0  0  0  0  0
   -1.5934  -54.0259  -20.9921 N   0  0  0  0  0  0  0  0  0  0  0  0
   -1.2781  -53.4329  -19.8262 C   0  0  0  0  0  0  0  0  0  0  0  0
   -0.1429  -52.7464  -19.6955 N   0  0  0  0  0  0  0  0  0  0  0  0
    0.7133  -52.6341  -20.7353 C   0  0  0  0  0  0  0  0  0  0  0  0
    0.3948  -53.2466  -21.9500 C   0  0  0  0  0  0  0  0  0  0  0  0
    1.2174  -53.1825  -23.0638 C   0  0  0  0  0  0  0  0  0  0  0  0
    0.9348  -53.7770  -24.2823 C   0  0  0  0  0  0  0  0  0  0  0  0
   -0.5283  -56.5045  -25.6568 C   0  0  0  0  0  0  0  0  0  0  0  0
   -0.6071  -55.0967  -25.5421 O   0  0  0  0  0  0  0  0  0  0  0  0
    1.8985  -51.8834  -20.6463 N   0  0  0  0  0  0  0  0  0  0  0  0
    2.8186  -52.2190  -20.2766 H   0  0  0  0  0  0  0  0  0  0  0  0
    1.9242  -50.5117  -21.0924 C   0  0  0  0  0  0  0  0  0  0  0  0
    1.0365  -49.5475  -20.7154 C   0  0  0  0  0  0  0  0  0  0  0  0
    1.1317  -48.2578  -21.2348 C   0  0  0  0  0  0  0  0  0  0  0  0
    2.1102  -47.9136  -22.1328 C   0  0  0  0  0  0  0  0  0  0  0  0
    2.1973  -46.6536  -22.6351 F   0  0  0  0  0  0  0  0  0  0  0  0
    3.0199  -48.8699  -22.5282 C   0  0  0  0  0  0  0  0  0  0  0  0
    4.2942  -48.4554  -23.6864 Cl  0  0  0  0  0  0  0  0  0  0  0  0
    2.9188  -50.1382  -22.0122 C   0  0  0  0  0  0  0  0  0  0  0  0
    1.7455  -53.7076  -25.3751 O   0  0  0  0  0  0  0  0  0  0  0  0
    2.6910  -52.8467  -25.8255 C   0  0  0  0  0  0  0  0  0  0  0  0
    2.8504  -52.7049  -27.3212 C   0  0  0  0  0  0  0  0  0  0  0  0
    1.6047  -53.2999  -27.9415 C   0  0  0  0  0  0  0  0  0  0  0  0
    0.6787  -52.3112  -28.4001 N   0  0  0  0  0  0  0  0  0  0  0  0
   -0.3108  -51.9374  -27.4157 C   0  0  0  0  0  0  0  0  0  0  0  0
   -1.4949  -52.8291  -27.6289 C   0  0  0  0  0  0  0  0  0  0  0  0
   -1.4236  -53.1362  -29.1086 C   0  0  0  0  0  0  0  0  0  0  0  0
   -0.0324  -52.7893  -29.5500 C   0  0  0  0  0  0  0  0  0  0  0  0
 11 12  1  0  0  0
 12  1  1  0  0  0
  1  2  2  0  0  0
  2  3  1  0  0  0
  3  4  2  0  0  0
  4  5  1  0  0  0
  5  6  2  0  0  0
  6  7  1  0  0  0
  7 13  1  0  0  0
 13 15  1  0  0  0
 15 16  2  0  0  0
 16 17  1  0  0  0
 17 18  2  0  0  0
 18 19  1  0  0  0
 18 20  1  0  0  0
 20 21  1  0  0  0
 20 22  2  0  0  0
  7  8  2  0  0  0
  8  9  1  0  0  0
  9 10  2  0  0  0
 10 23  1  0  0  0
 23 24  1  0  0  0
 24 25  1  0  0  0
 25 26  1  0  0  0
 26 27  1  0  0  0
 27 28  1  0  0  0
 28 29  1  0  0  0
 29 30  1  0  0  0
 30 31  1  0  0  0
 10  1  1  0  0  0
 31 27  1  0  0  0
  8  3  1  0  0  0
 22 15  1  0  0  0
 13 14  1  0  0  0
M  END
> <minimizedAffinity>
-6.69349

> <CNNscore>
0.4145460427

> <CNNaffinity>
7.1099929810

> <CNN_VS>
2.9474194050

> <CNNaffinity_variance>
0.1720415652

$$$$
[H]OC([H])([H])[C@]([H])(n1c([H])c([C@]2([H])C([H])([H])[C@]([H])(c3nc([H])c(Cl)c([H])c3[H])C2([H])[H])c2c([H])c([H])c([H])nc21)C([H])([H])[H]


 25 28  0  0  0  0  0  0  0  0999 V2000
   -0.2751  -52.5688  -26.3166 N   0  0  0  0  0  0  0  0  0  0  0  0
   -0.8940  -52.7486  -25.1753 C   0  0  0  0  0  0  0  0  0  0  0  0
   -0.0101  -52.8923  -24.0923 C   0  0  0  0  0  0  0  0  0  0  0  0
    1.2458  -52.7756  -24.6887 C   0  0  0  0  0  0  0  0  0  0  0  0
    2.5040  -52.7616  -24.1671 C   0  0  0  0  0  0  0  0  0  0  0  0
    3.6120  -52.5529  -24.9555 C   0  0  0  0  0  0  0  0  0  0  0  0
    3.4005  -52.3531  -26.3336 C   0  0  0  0  0  0  0  0  0  0  0  0
    2.1480  -52.3670  -26.8496 N   0  0  0  0  0  0  0  0  0  0  0  0
    1.0627  -52.5785  -26.0407 C   0  0  0  0  0  0  0  0  0  0  0  0
   -0.3716  -53.2858  -22.7780 C   0  0  0  0  0  0  0  0  0  0  0  0
   -1.3442  -52.4497  -21.9496 C   0  0  0  0  0  0  0  0  0  0  0  0
   -0.8118  -53.1415  -20.7587 C   0  0  0  0  0  0  0  0  0  0  0  0
    0.4368  -53.5349  -21.6009 C   0  0  0  0  0  0  0  0  0  0  0  0
   -0.4525  -52.4517  -19.5233 C   0  0  0  0  0  0  0  0  0  0  0  0
   -1.0544  -52.8423  -18.3012 C   0  0  0  0  0  0  0  0  0  0  0  0
   -0.7279  -52.1869  -17.1254 C   0  0  0  0  0  0  0  0  0  0  0  0
    0.1685  -51.1517  -17.0871 C   0  0  0  0  0  0  0  0  0  0  0  0
    0.5487  -50.3337  -15.5771 Cl  0  0  0  0  0  0  0  0  0  0  0  0
    0.7419  -50.7895  -18.3062 C   0  0  0  0  0  0  0  0  0  0  0  0
    0.4064  -51.4503  -19.4589 N   0  0  0  0  0  0  0  0  0  0  0  0
   -2.3414  -52.4892  -27.6471 C   0  0  0  0  0  0  0  0  0  0  0  0
   -0.8403  -52.4040  -27.6562 C   0  0  0  0  0  0  0  0  0  0  0  0
   -0.3316  -53.3899  -28.6620 C   0  0  0  0  0  0  0  0  0  0  0  0
    0.5803  -52.8027  -29.5142 O   0  0  0  0  0  0  0  0  0  0  0  0
    0.5621  -51.8368  -29.5765 H   0  0  0  0  0  0  0  0  0  0  0  0
 21 22  1  0  0  0
 22 23  1  0  0  0
 23 24  1  0  0  0
 22  1  1  0  0  0
  1  2  1  0  0  0
  2  3  2  0  0  0
  3 10  1  0  0  0
 10 11  1  0  0  0
 11 12  1  0  0  0
 12 13  1  0  0  0
 12 14  1  0  0  0
 14 15  2  0  0  0
 15 16  1  0  0  0
 16 17  2  0  0  0
 17 18  1  0  0  0
 17 19  1  0  0  0
 19 20  2  0  0  0
  3  4  1  0  0  0
  4  5  2  0  0  0
  5  6  1  0  0  0
  6  7  2  0  0  0
  7  8  1  0  0  0
  8  9  2  0  0  0
  9  1  1  0  0  0
 13 10  1  0  0  0
 20 14  1  0  0  0
  9  4  1  0  0  0
 24 25  1  0  0  0
M  END
> <minimizedAffinity>
-7.92777

> <CNNscore>
0.4360149503

> <CNNaffinity>
6.5826807022

> <CNN_VS>
2.8701472282

> <CNNaffinity_variance>
0.1113298982

$$$$
[H]OC([H])([H])[C@]([H])(n1c([H])c([C@]2([H])C([H])([H])[C@]([H])(c3nc([H])c(Cl)c([H])c3[H])C2([H])[H])c2c([H])c([H])c([H])nc21)C([H])([H])[H]


 25 28  0  0  0  0  0  0  0  0999 V2000
    0.7950  -51.7967  -21.3594 N   0  0  0  0  0  0  0  0  0  0  0  0
    1.4183  -52.4860  -22.2837 C   0  0  0  0  0  0  0  0  0  0  0  0
    0.6579  -52.6397  -23.4553 C   0  0  0  0  0  0  0  0  0  0  0  0
   -0.5227  -51.9572  -23.1605 C   0  0  0  0  0  0  0  0  0  0  0  0
   -1.6292  -51.6868  -23.9075 C   0  0  0  0  0  0  0  0  0  0  0  0
   -2.6589  -50.9143  -23.4221 C   0  0  0  0  0  0  0  0  0  0  0  0
   -2.5305  -50.4078  -22.1141 C   0  0  0  0  0  0  0  0  0  0  0  0
   -1.4287  -50.6778  -21.3737 N   0  0  0  0  0  0  0  0  0  0  0  0
   -0.4188  -51.4515  -21.8824 C   0  0  0  0  0  0  0  0  0  0  0  0
    0.9828  -53.4880  -24.5451 C   0  0  0  0  0  0  0  0  0  0  0  0
    1.9174  -53.0138  -25.6555 C   0  0  0  0  0  0  0  0  0  0  0  0
    1.3568  -54.0949  -26.4904 C   0  0  0  0  0  0  0  0  0  0  0  0
    0.1409  -54.1526  -25.5202 C   0  0  0  0  0  0  0  0  0  0  0  0
    0.9493  -53.9072  -27.8797 C   0  0  0  0  0  0  0  0  0  0  0  0
    1.7418  -54.4484  -28.9224 C   0  0  0  0  0  0  0  0  0  0  0  0
    1.3692  -54.2666  -30.2440 C   0  0  0  0  0  0  0  0  0  0  0  0
    0.2455  -53.5687  -30.6000 C   0  0  0  0  0  0  0  0  0  0  0  0
   -0.1894  -53.3463  -32.2898 Cl  0  0  0  0  0  0  0  0  0  0  0  0
   -0.5121  -53.0467  -29.5513 C   0  0  0  0  0  0  0  0  0  0  0  0
   -0.1273  -53.2376  -28.2500 N   0  0  0  0  0  0  0  0  0  0  0  0
    1.9949  -52.5737  -19.3588 C   0  0  0  0  0  0  0  0  0  0  0  0
    1.2419  -51.4472  -20.0106 C   0  0  0  0  0  0  0  0  0  0  0  0
    0.1378  -51.0383  -19.0854 C   0  0  0  0  0  0  0  0  0  0  0  0
    0.1725  -49.6811  -18.8416 O   0  0  0  0  0  0  0  0  0  0  0  0
    1.0094  -49.2266  -19.0154 H   0  0  0  0  0  0  0  0  0  0  0  0
 21 22  1  0  0  0
 22 23  1  0  0  0
 23 24  1  0  0  0
 22  1  1  0  0  0
  1  2  1  0  0  0
  2  3  2  0  0  0
  3 10  1  0  0  0
 10 11  1  0  0  0
 11 12  1  0  0  0
 12 13  1  0  0  0
 12 14  1  0  0  0
 14 15  2  0  0  0
 15 16  1  0  0  0
 16 17  2  0  0  0
 17 18  1  0  0  0
 17 19  1  0  0  0
 19 20  2  0  0  0
  3  4  1  0  0  0
  4  5  2  0  0  0
  5  6  1  0  0  0
  6  7  2  0  0  0
  7  8  1  0  0  0
  8  9  2  0  0  0
  9  1  1  0  0  0
 13 10  1  0  0  0
 20 14  1  0  0  0
  9  4  1  0  0  0
 24 25  1  0  0  0
M  END
> <minimizedAffinity>
10.84892

> <CNNscore>
0.4230132699

> <CNNaffinity>
6.0940885544

> <CNN_VS>
2.5778803825

> <CNNaffinity_variance>
1.2703026533

$$$$
[H]OC([H])([H])[C@]([H])(n1c([H])c([C@]2([H])C([H])([H])[C@]([H])(c3nc([H])c(Cl)c([H])c3[H])C2([H])[H])c2c([H])c([H])c([H])nc21)C([H])([H])[H]


 25 28  0  0  0  0  0  0  0  0999 V2000
    0.4633  -52.1686  -26.0374 N   0  0  0  0  0  0  0  0  0  0  0  0
   -0.1584  -52.7347  -25.0319 C   0  0  0  0  0  0  0  0  0  0  0  0
    0.3137  -52.2971  -23.7828 C   0  0  0  0  0  0  0  0  0  0  0  0
    1.3080  -51.3791  -24.1219 C   0  0  0  0  0  0  0  0  0  0  0  0
    2.0932  -50.5650  -23.3629 C   0  0  0  0  0  0  0  0  0  0  0  0
    2.9683  -49.6683  -23.9312 C   0  0  0  0  0  0  0  0  0  0  0  0
    3.0267  -49.6198  -25.3377 C   0  0  0  0  0  0  0  0  0  0  0  0
    2.2442  -50.4302  -26.0901 N   0  0  0  0  0  0  0  0  0  0  0  0
    1.3825  -51.3149  -25.4969 C   0  0  0  0  0  0  0  0  0  0  0  0
   -0.0266  -52.8631  -22.5271 C   0  0  0  0  0  0  0  0  0  0  0  0
   -1.1801  -52.2996  -21.7006 C   0  0  0  0  0  0  0  0  0  0  0  0
   -0.5809  -52.9783  -20.5342 C   0  0  0  0  0  0  0  0  0  0  0  0
    0.7583  -53.0556  -21.3237 C   0  0  0  0  0  0  0  0  0  0  0  0
   -0.4200  -52.3419  -19.2302 C   0  0  0  0  0  0  0  0  0  0  0  0
   -1.0937  -52.8733  -18.1024 C   0  0  0  0  0  0  0  0  0  0  0  0
   -0.9558  -52.2702  -16.8631 C   0  0  0  0  0  0  0  0  0  0  0  0
   -0.1830  -51.1555  -16.6716 C   0  0  0  0  0  0  0  0  0  0  0  0
   -0.0420  -50.4083  -15.0855 Cl  0  0  0  0  0  0  0  0  0  0  0  0
    0.4653  -50.6553  -17.8011 C   0  0  0  0  0  0  0  0  0  0  0  0
    0.3168  -51.2662  -19.0188 N   0  0  0  0  0  0  0  0  0  0  0  0
   -1.1023  -52.8900  -27.7908 C   0  0  0  0  0  0  0  0  0  0  0  0
    0.2750  -52.3771  -27.4735 C   0  0  0  0  0  0  0  0  0  0  0  0
    1.2663  -53.3132  -28.0925 C   0  0  0  0  0  0  0  0  0  0  0  0
    2.4035  -52.6402  -28.4880 O   0  0  0  0  0  0  0  0  0  0  0  0
    2.3259  -51.6827  -28.6082 H   0  0  0  0  0  0  0  0  0  0  0  0
 21 22  1  0  0  0
 22 23  1  0  0  0
 23 24  1  0  0  0
 22  1  1  0  0  0
  1  2  1  0  0  0
  2  3  2  0  0  0
  3 10  1  0  0  0
 10 11  1  0  0  0
 11 12  1  0  0  0
 12 13  1  0  0  0
 12 14  1  0  0  0
 14 15  2  0  0  0
 15 16  1  0  0  0
 16 17  2  0  0  0
 17 18  1  0  0  0
 17 19  1  0  0  0
 19 20  2  0  0  0
  3  4  1  0  0  0
  4  5  2  0  0  0
  5  6  1  0  0  0
  6  7  2  0  0  0
  7  8  1  0  0  0
  8  9  2  0  0  0
  9  1  1  0  0  0
 13 10  1  0  0  0
 20 14  1  0  0  0
  9  4  1  0  0  0
 24 25  1  0  0  0
M  END
> <minimizedAffinity>
-7.58054

> <CNNscore>
0.3528536856

> <CNNaffinity>
6.3956708908

> <CNN_VS>
2.2567360401

> <CNNaffinity_variance>
0.1881543249

$$$$
[H]OC([H])([H])[C@]([H])(n1c([H])c([C@]2([H])C([H])([H])[C@]([H])(c3nc([H])c(Cl)c([H])c3[H])C2([H])[H])c2c([H])c([H])c([H])nc21)C([H])([H])[H]


 25 28  0  0  0  0  0  0  0  0999 V2000
    5.0574  -48.1305  -24.9794 N   0  0  0  0  0  0  0  0  0  0  0  0
    4.7967  -47.1887  -24.1059 C   0  0  0  0  0  0  0  0  0  0  0  0
    4.6846  -47.6779  -22.7934 C   0  0  0  0  0  0  0  0  0  0  0  0
    4.9124  -49.0463  -22.9431 C   0  0  0  0  0  0  0  0  0  0  0  0
    5.0028  -50.0591  -22.0368 C   0  0  0  0  0  0  0  0  0  0  0  0
    5.3173  -51.3436  -22.4159 C   0  0  0  0  0  0  0  0  0  0  0  0
    5.5443  -51.5795  -23.7859 C   0  0  0  0  0  0  0  0  0  0  0  0
    5.4543  -50.5703  -24.6850 N   0  0  0  0  0  0  0  0  0  0  0  0
    5.1379  -49.3005  -24.2790 C   0  0  0  0  0  0  0  0  0  0  0  0
    4.2244  -46.9389  -21.6732 C   0  0  0  0  0  0  0  0  0  0  0  0
    5.0802  -46.8083  -20.4155 C   0  0  0  0  0  0  0  0  0  0  0  0
    3.8431  -46.4389  -19.6991 C   0  0  0  0  0  0  0  0  0  0  0  0
    3.0314  -47.0807  -20.8620 C   0  0  0  0  0  0  0  0  0  0  0  0
    3.4750  -46.9874  -18.3972 C   0  0  0  0  0  0  0  0  0  0  0  0
    3.0485  -48.3352  -18.2990 C   0  0  0  0  0  0  0  0  0  0  0  0
    2.6871  -48.8616  -17.0698 C   0  0  0  0  0  0  0  0  0  0  0  0
    2.7200  -48.1225  -15.9169 C   0  0  0  0  0  0  0  0  0  0  0  0
    2.2408  -48.8206  -14.3753 Cl  0  0  0  0  0  0  0  0  0  0  0  0
    3.1420  -46.7991  -16.0469 C   0  0  0  0  0  0  0  0  0  0  0  0
    3.4959  -46.2965  -17.2717 N   0  0  0  0  0  0  0  0  0  0  0  0
    5.6930  -46.6566  -26.8421 C   0  0  0  0  0  0  0  0  0  0  0  0
    5.2222  -48.0236  -26.4294 C   0  0  0  0  0  0  0  0  0  0  0  0
    3.9847  -48.3375  -27.2120 C   0  0  0  0  0  0  0  0  0  0  0  0
    3.9339  -49.6755  -27.5433 O   0  0  0  0  0  0  0  0  0  0  0  0
    4.7692  -50.1643  -27.5195 H   0  0  0  0  0  0  0  0  0  0  0  0
 21 22  1  0  0  0
 22 23  1  0  0  0
 23 24  1  0  0  0
 22  1  1  0  0  0
  1  2  1  0  0  0
  2  3  2  0  0  0
  3 10  1  0  0  0
 10 11  1  0  0  0
 11 12  1  0  0  0
 12 13  1  0  0  0
 12 14  1  0  0  0
 14 15  2  0  0  0
 15 16  1  0  0  0
 16 17  2  0  0  0
 17 18  1  0  0  0
 17 19  1  0  0  0
 19 20  2  0  0  0
  3  4  1  0  0  0
  4  5  2  0  0  0
  5  6  1  0  0  0
  6  7  2  0  0  0
  7  8  1  0  0  0
  8  9  2  0  0  0
  9  1  1  0  0  0
 13 10  1  0  0  0
 20 14  1  0  0  0
  9  4  1  0  0  0
 24 25  1  0  0  0
M  END
> <minimizedAffinity>
-3.56522

> <CNNscore>
0.3494772911

> <CNNaffinity>
5.4748101234

> <CNN_VS>
1.9133218527

> <CNNaffinity_variance>
0.4348504543

$$$$
[H]OC([H])([H])[C@]([H])(n1c([H])c([C@]2([H])C([H])([H])[C@]([H])(c3nc([H])c(Cl)c([H])c3[H])C2([H])[H])c2c([H])c([H])c([H])nc21)C([H])([H])[H]


 25 28  0  0  0  0  0  0  0  0999 V2000
    2.5651  -52.1909  -24.5878 N   0  0  0  0  0  0  0  0  0  0  0  0
    2.2049  -52.5801  -23.3892 C   0  0  0  0  0  0  0  0  0  0  0  0
    0.8366  -52.8885  -23.3041 C   0  0  0  0  0  0  0  0  0  0  0  0
    0.3757  -52.6518  -24.5995 C   0  0  0  0  0  0  0  0  0  0  0  0
   -0.8450  -52.8266  -25.1781 C   0  0  0  0  0  0  0  0  0  0  0  0
   -1.0507  -52.5938  -26.5183 C   0  0  0  0  0  0  0  0  0  0  0  0
    0.0534  -52.1638  -27.2800 C   0  0  0  0  0  0  0  0  0  0  0  0
    1.2664  -51.9913  -26.7021 N   0  0  0  0  0  0  0  0  0  0  0  0
    1.4419  -52.2294  -25.3644 C   0  0  0  0  0  0  0  0  0  0  0  0
    0.1221  -53.1503  -22.1067 C   0  0  0  0  0  0  0  0  0  0  0  0
   -0.7585  -52.0780  -21.4695 C   0  0  0  0  0  0  0  0  0  0  0  0
   -0.6778  -52.8576  -20.2181 C   0  0  0  0  0  0  0  0  0  0  0  0
    0.5781  -53.5721  -20.7970 C   0  0  0  0  0  0  0  0  0  0  0  0
   -0.4214  -52.2563  -18.9127 C   0  0  0  0  0  0  0  0  0  0  0  0
   -1.1197  -52.7284  -17.7735 C   0  0  0  0  0  0  0  0  0  0  0  0
   -0.8911  -52.1571  -16.5326 C   0  0  0  0  0  0  0  0  0  0  0  0
   -0.0029  -51.1303  -16.3500 C   0  0  0  0  0  0  0  0  0  0  0  0
    0.2518  -50.4201  -14.7612 Cl  0  0  0  0  0  0  0  0  0  0  0  0
    0.6669  -50.6867  -17.4906 C   0  0  0  0  0  0  0  0  0  0  0  0
    0.4274  -51.2649  -18.7097 N   0  0  0  0  0  0  0  0  0  0  0  0
    4.9698  -52.1076  -24.0815 C   0  0  0  0  0  0  0  0  0  0  0  0
    3.8827  -51.7674  -25.0629 C   0  0  0  0  0  0  0  0  0  0  0  0
    3.9832  -50.3051  -25.3693 C   0  0  0  0  0  0  0  0  0  0  0  0
    3.8758  -50.0742  -26.7249 O   0  0  0  0  0  0  0  0  0  0  0  0
    4.0511  -50.8239  -27.3118 H   0  0  0  0  0  0  0  0  0  0  0  0
 21 22  1  0  0  0
 22 23  1  0  0  0
 23 24  1  0  0  0
 22  1  1  0  0  0
  1  2  1  0  0  0
  2  3  2  0  0  0
  3 10  1  0  0  0
 10 11  1  0  0  0
 11 12  1  0  0  0
 12 13  1  0  0  0
 12 14  1  0  0  0
 14 15  2  0  0  0
 15 16  1  0  0  0
 16 17  2  0  0  0
 17 18  1  0  0  0
 17 19  1  0  0  0
 19 20  2  0  0  0
  3  4  1  0  0  0
  4  5  2  0  0  0
  5  6  1  0  0  0
  6  7  2  0  0  0
  7  8  1  0  0  0
  8  9  2  0  0  0
  9  1  1  0  0  0
 13 10  1  0  0  0
 20 14  1  0  0  0
  9  4  1  0  0  0
 24 25  1  0  0  0
M  END
> <minimizedAffinity>
-7.13376

> <CNNscore>
0.3368638158

> <CNNaffinity>
6.2780327797

> <CNN_VS>
2.1148421764

> <CNNaffinity_variance>
0.1178298444

$$$$
[H]OC([H])([H])[C@]([H])(n1c([H])c([C@]2([H])C([H])([H])[C@]([H])(c3nc([H])c(Cl)c([H])c3[H])C2([H])[H])c2c([H])c([H])c([H])nc21)C([H])([H])[H]


 25 28  0  0  0  0  0  0  0  0999 V2000
   -0.9487  -53.0348  -19.2030 N   0  0  0  0  0  0  0  0  0  0  0  0
    0.1942  -52.4254  -19.4038 C   0  0  0  0  0  0  0  0  0  0  0  0
    0.6643  -52.5680  -20.7204 C   0  0  0  0  0  0  0  0  0  0  0  0
   -0.3258  -53.3389  -21.3303 C   0  0  0  0  0  0  0  0  0  0  0  0
   -0.4880  -53.7628  -22.6146 C   0  0  0  0  0  0  0  0  0  0  0  0
   -1.6051  -54.4614  -23.0105 C   0  0  0  0  0  0  0  0  0  0  0  0
   -2.5850  -54.7272  -22.0342 C   0  0  0  0  0  0  0  0  0  0  0  0
   -2.4213  -54.3040  -20.7578 N   0  0  0  0  0  0  0  0  0  0  0  0
   -1.2976  -53.6111  -20.3913 C   0  0  0  0  0  0  0  0  0  0  0  0
    1.9502  -52.1876  -21.1836 C   0  0  0  0  0  0  0  0  0  0  0  0
    3.0914  -51.9289  -20.2029 C   0  0  0  0  0  0  0  0  0  0  0  0
    3.7588  -51.1824  -21.2880 C   0  0  0  0  0  0  0  0  0  0  0  0
    2.3777  -51.0662  -21.9966 C   0  0  0  0  0  0  0  0  0  0  0  0
    4.3943  -49.8823  -21.0953 C   0  0  0  0  0  0  0  0  0  0  0  0
    3.7229  -48.7050  -21.5092 C   0  0  0  0  0  0  0  0  0  0  0  0
    4.3222  -47.4677  -21.3402 C   0  0  0  0  0  0  0  0  0  0  0  0
    5.5647  -47.3246  -20.7814 C   0  0  0  0  0  0  0  0  0  0  0  0
    6.3005  -45.7378  -20.5949 Cl  0  0  0  0  0  0  0  0  0  0  0  0
    6.2005  -48.5018  -20.3863 C   0  0  0  0  0  0  0  0  0  0  0  0
    5.5911  -49.7167  -20.5615 N   0  0  0  0  0  0  0  0  0  0  0  0
   -3.1774  -52.7658  -18.1996 C   0  0  0  0  0  0  0  0  0  0  0  0
   -1.7373  -53.1348  -17.9744 C   0  0  0  0  0  0  0  0  0  0  0  0
   -1.2213  -52.2982  -16.8447 C   0  0  0  0  0  0  0  0  0  0  0  0
   -0.4215  -53.0420  -16.0022 O   0  0  0  0  0  0  0  0  0  0  0  0
   -0.5224  -54.0041  -16.0394 H   0  0  0  0  0  0  0  0  0  0  0  0
 21 22  1  0  0  0
 22 23  1  0  0  0
 23 24  1  0  0  0
 22  1  1  0  0  0
  1  2  1  0  0  0
  2  3  2  0  0  0
  3 10  1  0  0  0
 10 11  1  0  0  0
 11 12  1  0  0  0
 12 13  1  0  0  0
 12 14  1  0  0  0
 14 15  2  0  0  0
 15 16  1  0  0  0
 16 17  2  0  0  0
 17 18  1  0  0  0
 17 19  1  0  0  0
 19 20  2  0  0  0
  3  4  1  0  0  0
  4  5  2  0  0  0
  5  6  1  0  0  0
  6  7  2  0  0  0
  7  8  1  0  0  0
  8  9  2  0  0  0
  9  1  1  0  0  0
 13 10  1  0  0  0
 20 14  1  0  0  0
  9  4  1  0  0  0
 24 25  1  0  0  0
M  END
> <minimizedAffinity>
-3.13965

> <CNNscore>
0.3285202384

> <CNNaffinity>
5.8473587036

> <CNN_VS>
1.9209756851

> <CNNaffinity_variance>
0.5819510818

$$$$
[H]OC([H])([H])[C@]([H])(n1c([H])c([C@]2([H])C([H])([H])[C@]([H])(c3nc([H])c(Cl)c([H])c3[H])C2([H])[H])c2c([H])c([H])c([H])nc21)C([H])([H])[H]


 25 28  0  0  0  0  0  0  0  0999 V2000
    0.5240  -52.3098  -25.1377 N   0  0  0  0  0  0  0  0  0  0  0  0
    1.0790  -51.4907  -24.2782 C   0  0  0  0  0  0  0  0  0  0  0  0
    0.8478  -51.8623  -22.9429 C   0  0  0  0  0  0  0  0  0  0  0  0
    0.0819  -53.0223  -23.0633 C   0  0  0  0  0  0  0  0  0  0  0  0
   -0.4049  -53.8926  -22.1355 C   0  0  0  0  0  0  0  0  0  0  0  0
   -1.0824  -55.0335  -22.4988 C   0  0  0  0  0  0  0  0  0  0  0  0
   -1.2585  -55.2741  -23.8754 C   0  0  0  0  0  0  0  0  0  0  0  0
   -0.7728  -54.4071  -24.7960 N   0  0  0  0  0  0  0  0  0  0  0  0
   -0.1029  -53.2776  -24.4053 C   0  0  0  0  0  0  0  0  0  0  0  0
    1.1548  -51.0766  -21.8022 C   0  0  0  0  0  0  0  0  0  0  0  0
    1.7470  -51.7146  -20.5478 C   0  0  0  0  0  0  0  0  0  0  0  0
    1.3027  -50.5127  -19.8141 C   0  0  0  0  0  0  0  0  0  0  0  0
    0.3230  -50.2143  -20.9863 C   0  0  0  0  0  0  0  0  0  0  0  0
    0.6231  -50.5656  -18.5231 C   0  0  0  0  0  0  0  0  0  0  0  0
    0.7212  -49.4672  -17.6332 C   0  0  0  0  0  0  0  0  0  0  0  0
    0.0887  -49.5123  -16.4017 C   0  0  0  0  0  0  0  0  0  0  0  0
   -0.6422  -50.5959  -15.9916 C   0  0  0  0  0  0  0  0  0  0  0  0
   -1.4207  -50.6234  -14.4146 Cl  0  0  0  0  0  0  0  0  0  0  0  0
   -0.7180  -51.6616  -16.8888 C   0  0  0  0  0  0  0  0  0  0  0  0
   -0.0856  -51.5980  -18.1029 N   0  0  0  0  0  0  0  0  0  0  0  0
   -0.8616  -52.4259  -27.1657 C   0  0  0  0  0  0  0  0  0  0  0  0
    0.5201  -52.2490  -26.5997 C   0  0  0  0  0  0  0  0  0  0  0  0
    1.4166  -53.2519  -27.2576 C   0  0  0  0  0  0  0  0  0  0  0  0
    0.7411  -54.4266  -27.5156 O   0  0  0  0  0  0  0  0  0  0  0  0
   -0.0686  -54.5860  -27.0093 H   0  0  0  0  0  0  0  0  0  0  0  0
 21 22  1  0  0  0
 22 23  1  0  0  0
 23 24  1  0  0  0
 22  1  1  0  0  0
  1  2  1  0  0  0
  2  3  2  0  0  0
  3 10  1  0  0  0
 10 11  1  0  0  0
 11 12  1  0  0  0
 12 13  1  0  0  0
 12 14  1  0  0  0
 14 15  2  0  0  0
 15 16  1  0  0  0
 16 17  2  0  0  0
 17 18  1  0  0  0
 17 19  1  0  0  0
 19 20  2  0  0  0
  3  4  1  0  0  0
  4  5  2  0  0  0
  5  6  1  0  0  0
  6  7  2  0  0  0
  7  8  1  0  0  0
  8  9  2  0  0  0
  9  1  1  0  0  0
 13 10  1  0  0  0
 20 14  1  0  0  0
  9  4  1  0  0  0
 24 25  1  0  0  0
M  END
> <minimizedAffinity>
-7.88144

> <CNNscore>
0.3115701675

> <CNNaffinity>
6.3848710060

> <CNN_VS>
1.9893352985

> <CNNaffinity_variance>
0.1044435948

$$$$
[H]OC([H])([H])[C@]([H])(n1c([H])c([C@]2([H])C([H])([H])[C@]([H])(c3nc([H])c(Cl)c([H])c3[H])C2([H])[H])c2c([H])c([H])c([H])nc21)C([H])([H])[H]


 25 28  0  0  0  0  0  0  0  0999 V2000
   -0.1871  -53.7837  -23.9912 N   0  0  0  0  0  0  0  0  0  0  0  0
   -0.4254  -53.9875  -22.7186 C   0  0  0  0  0  0  0  0  0  0  0  0
    0.1918  -53.0361  -21.8889 C   0  0  0  0  0  0  0  0  0  0  0  0
    0.8463  -52.2006  -22.7946 C   0  0  0  0  0  0  0  0  0  0  0  0
    1.5658  -51.0569  -22.6226 C   0  0  0  0  0  0  0  0  0  0  0  0
    2.0624  -50.3467  -23.6911 C   0  0  0  0  0  0  0  0  0  0  0  0
    1.8003  -50.8465  -24.9817 C   0  0  0  0  0  0  0  0  0  0  0  0
    1.0839  -51.9839  -25.1498 N   0  0  0  0  0  0  0  0  0  0  0  0
    0.6027  -52.6717  -24.0669 C   0  0  0  0  0  0  0  0  0  0  0  0
    0.2746  -53.1040  -20.4742 C   0  0  0  0  0  0  0  0  0  0  0  0
   -0.9792  -52.9935  -19.6099 C   0  0  0  0  0  0  0  0  0  0  0  0
   -0.0856  -52.6578  -18.4833 C   0  0  0  0  0  0  0  0  0  0  0  0
    1.0167  -52.3007  -19.5227 C   0  0  0  0  0  0  0  0  0  0  0  0
   -0.3445  -51.5642  -17.5516 C   0  0  0  0  0  0  0  0  0  0  0  0
    0.4211  -50.3746  -17.6360 C   0  0  0  0  0  0  0  0  0  0  0  0
    0.1902  -49.3356  -16.7496 C   0  0  0  0  0  0  0  0  0  0  0  0
   -0.7641  -49.4060  -15.7694 C   0  0  0  0  0  0  0  0  0  0  0  0
   -1.0204  -48.0715  -14.6525 Cl  0  0  0  0  0  0  0  0  0  0  0  0
   -1.4992  -50.5902  -15.7108 C   0  0  0  0  0  0  0  0  0  0  0  0
   -1.2562  -51.6069  -16.5969 N   0  0  0  0  0  0  0  0  0  0  0  0
   -0.8301  -56.0124  -24.8069 C   0  0  0  0  0  0  0  0  0  0  0  0
   -0.6295  -54.5620  -25.1487 C   0  0  0  0  0  0  0  0  0  0  0  0
    0.2951  -54.4920  -26.3245 C   0  0  0  0  0  0  0  0  0  0  0  0
   -0.2578  -53.7485  -27.3463 O   0  0  0  0  0  0  0  0  0  0  0  0
   -1.2183  -53.6285  -27.3299 H   0  0  0  0  0  0  0  0  0  0  0  0
 21 22  1  0  0  0
 22 23  1  0  0  0
 23 24  1  0  0  0
 22  1  1  0  0  0
  1  2  1  0  0  0
  2  3  2  0  0  0
  3 10  1  0  0  0
 10 11  1  0  0  0
 11 12  1  0  0  0
 12 13  1  0  0  0
 12 14  1  0  0  0
 14 15  2  0  0  0
 15 16  1  0  0  0
 16 17  2  0  0  0
 17 18  1  0  0  0
 17 19  1  0  0  0
 19 20  2  0  0  0
  3  4  1  0  0  0
  4  5  2  0  0  0
  5  6  1  0  0  0
  6  7  2  0  0  0
  7  8  1  0  0  0
  8  9  2  0  0  0
  9  1  1  0  0  0
 13 10  1  0  0  0
 20 14  1  0  0  0
  9  4  1  0  0  0
 24 25  1  0  0  0
M  END
> <minimizedAffinity>
-6.57325

> <CNNscore>
0.3062980175

> <CNNaffinity>
6.3596682549

> <CNN_VS>
1.9479538202

> <CNNaffinity_variance>
0.1219336614

$$$$
[H]OC([H])([H])[C@]([H])(n1c([H])c([C@]2([H])C([H])([H])[C@]([H])(c3nc([H])c(Cl)c([H])c3[H])C2([H])[H])c2c([H])c([H])c([H])nc21)C([H])([H])[H]


 25 28  0  0  0  0  0  0  0  0999 V2000
   -0.9212  -52.7290  -29.2160 N   0  0  0  0  0  0  0  0  0  0  0  0
   -1.4715  -52.1806  -28.1604 C   0  0  0  0  0  0  0  0  0  0  0  0
   -0.5780  -52.0534  -27.0834 C   0  0  0  0  0  0  0  0  0  0  0  0
    0.6087  -52.5844  -27.5898 C   0  0  0  0  0  0  0  0  0  0  0  0
    1.8591  -52.6884  -27.0598 C   0  0  0  0  0  0  0  0  0  0  0  0
    2.9143  -53.1885  -27.7873 C   0  0  0  0  0  0  0  0  0  0  0  0
    2.6562  -53.5942  -29.1113 C   0  0  0  0  0  0  0  0  0  0  0  0
    1.4117  -53.4892  -29.6360 N   0  0  0  0  0  0  0  0  0  0  0  0
    0.3791  -52.9884  -28.8876 C   0  0  0  0  0  0  0  0  0  0  0  0
   -0.9274  -51.6781  -25.7605 C   0  0  0  0  0  0  0  0  0  0  0  0
    0.1414  -51.2382  -24.7628 C   0  0  0  0  0  0  0  0  0  0  0  0
   -0.8381  -51.5267  -23.6962 C   0  0  0  0  0  0  0  0  0  0  0  0
   -1.6225  -52.4035  -24.7156 C   0  0  0  0  0  0  0  0  0  0  0  0
   -0.5054  -52.2574  -22.4769 C   0  0  0  0  0  0  0  0  0  0  0  0
   -1.5424  -52.6901  -21.6133 C   0  0  0  0  0  0  0  0  0  0  0  0
   -1.2362  -53.3747  -20.4488 C   0  0  0  0  0  0  0  0  0  0  0  0
    0.0528  -53.6576  -20.0814 C   0  0  0  0  0  0  0  0  0  0  0  0
    0.4047  -54.5175  -18.5879 Cl  0  0  0  0  0  0  0  0  0  0  0  0
    1.0507  -53.2167  -20.9509 C   0  0  0  0  0  0  0  0  0  0  0  0
    0.7278  -52.5411  -22.0987 N   0  0  0  0  0  0  0  0  0  0  0  0
   -1.7976  -54.5178  -30.6576 C   0  0  0  0  0  0  0  0  0  0  0  0
   -1.5244  -53.0466  -30.5108 C   0  0  0  0  0  0  0  0  0  0  0  0
   -0.7101  -52.6119  -31.6898 C   0  0  0  0  0  0  0  0  0  0  0  0
    0.6141  -52.9661  -31.5353 O   0  0  0  0  0  0  0  0  0  0  0  0
    0.9147  -53.1534  -30.6343 H   0  0  0  0  0  0  0  0  0  0  0  0
 21 22  1  0  0  0
 22 23  1  0  0  0
 23 24  1  0  0  0
 22  1  1  0  0  0
  1  2  1  0  0  0
  2  3  2  0  0  0
  3 10  1  0  0  0
 10 11  1  0  0  0
 11 12  1  0  0  0
 12 13  1  0  0  0
 12 14  1  0  0  0
 14 15  2  0  0  0
 15 16  1  0  0  0
 16 17  2  0  0  0
 17 18  1  0  0  0
 17 19  1  0  0  0
 19 20  2  0  0  0
  3  4  1  0  0  0
  4  5  2  0  0  0
  5  6  1  0  0  0
  6  7  2  0  0  0
  7  8  1  0  0  0
  8  9  2  0  0  0
  9  1  1  0  0  0
 13 10  1  0  0  0
 20 14  1  0  0  0
  9  4  1  0  0  0
 24 25  1  0  0  0
M  END
> <minimizedAffinity>
10.01759

> <CNNscore>
0.2923551202

> <CNNaffinity>
5.8926520348

> <CNN_VS>
1.7227469683

> <CNNaffinity_variance>
0.1566995084

$$$$
[H]c1c([H])c(S(=O)(=O)N([H])[H])c([H])c([H])c1N([H])c1nc(N([H])[C@]2([H])C([H])([H])C([H])([H])[C@@]([H])(N([H])[H])C([H])([H])C2([H])[H])c2c([H])c([H])n([H])c2n1


 35 38  0  0  0  0  0  0  0  0999 V2000
    0.2870  -53.3069  -21.4665 N   0  0  0  0  0  0  0  0  0  0  0  0
   -0.8921  -53.9793  -21.6312 C   0  0  0  0  0  0  0  0  0  0  0  0
   -1.7447  -54.0700  -20.6116 N   0  0  0  0  0  0  0  0  0  0  0  0
   -1.4343  -53.5004  -19.4376 C   0  0  0  0  0  0  0  0  0  0  0  0
   -0.2479  -52.8234  -19.2711 C   0  0  0  0  0  0  0  0  0  0  0  0
    0.6495  -52.7191  -20.3189 C   0  0  0  0  0  0  0  0  0  0  0  0
   -0.2002  -52.3442  -17.9631 C   0  0  0  0  0  0  0  0  0  0  0  0
   -1.3724  -52.7454  -17.3570 C   0  0  0  0  0  0  0  0  0  0  0  0
   -2.0980  -53.4340  -18.2496 N   0  0  0  0  0  0  0  0  0  0  0  0
   -3.0249  -53.8681  -18.1070 H   0  0  0  0  0  0  0  0  0  0  0  0
   -1.1747  -54.5914  -22.8764 N   0  0  0  0  0  0  0  0  0  0  0  0
   -1.9077  -55.3969  -22.8953 H   0  0  0  0  0  0  0  0  0  0  0  0
   -0.6240  -54.2990  -24.1277 C   0  0  0  0  0  0  0  0  0  0  0  0
   -0.3466  -55.2070  -25.0999 C   0  0  0  0  0  0  0  0  0  0  0  0
    0.2377  -54.8554  -26.3254 C   0  0  0  0  0  0  0  0  0  0  0  0
    0.5576  -53.5555  -26.5967 C   0  0  0  0  0  0  0  0  0  0  0  0
    0.2888  -52.6053  -25.6316 C   0  0  0  0  0  0  0  0  0  0  0  0
   -0.2811  -52.9664  -24.4418 C   0  0  0  0  0  0  0  0  0  0  0  0
    1.2930  -53.0752  -28.1233 S   0  0  0  0  0  0  0  0  0  0  0  0
    0.2562  -52.6504  -29.1214 O   0  0  0  0  0  0  0  0  0  0  0  0
    2.2315  -54.3242  -28.8036 N   0  0  0  0  0  0  0  0  0  0  0  0
    2.1760  -51.8899  -27.8405 O   0  0  0  0  0  0  0  0  0  0  0  0
    2.1264  -55.2410  -28.3473 H   0  0  0  0  0  0  0  0  0  0  0  0
    3.1792  -54.0619  -29.0885 H   0  0  0  0  0  0  0  0  0  0  0  0
    1.8679  -52.0167  -20.1533 N   0  0  0  0  0  0  0  0  0  0  0  0
    2.6701  -52.5795  -19.7202 H   0  0  0  0  0  0  0  0  0  0  0  0
    2.1133  -50.6524  -20.5063 C   0  0  0  0  0  0  0  0  0  0  0  0
    3.1246  -50.5591  -21.6117 C   0  0  0  0  0  0  0  0  0  0  0  0
    3.4570  -49.1122  -21.9427 C   0  0  0  0  0  0  0  0  0  0  0  0
    2.1824  -48.3409  -22.2641 C   0  0  0  0  0  0  0  0  0  0  0  0
    2.5047  -46.9880  -22.6265 N   0  0  0  0  0  0  0  0  0  0  0  0
    1.3033  -48.4080  -21.0338 C   0  0  0  0  0  0  0  0  0  0  0  0
    0.8695  -49.8730  -20.8812 C   0  0  0  0  0  0  0  0  0  0  0  0
    2.5264  -46.9506  -23.6845 H   0  0  0  0  0  0  0  0  0  0  0  0
    1.7018  -46.3790  -22.3541 H   0  0  0  0  0  0  0  0  0  0  0  0
  1  2  2  0  0  0
  2 11  1  0  0  0
 11 13  1  0  0  0
 13 14  2  0  0  0
 14 15  1  0  0  0
 15 16  2  0  0  0
 16 19  1  0  0  0
 19 20  2  0  0  0
 19 21  1  0  0  0
 19 22  2  0  0  0
 16 17  1  0  0  0
 17 18  2  0  0  0
  2  3  1  0  0  0
  3  4  2  0  0  0
  4  5  1  0  0  0
  5  6  2  0  0  0
  6 25  1  0  0  0
 25 27  1  0  0  0
 27 28  1  0  0  0
 28 29  1  0  0  0
 29 30  1  0  0  0
 30 31  1  0  0  0
 30 32  1  0  0  0
 32 33  1  0  0  0
  5  7  1  0  0  0
  7  8  2  0  0  0
  8  9  1  0  0  0
  6  1  1  0  0  0
 33 27  1  0  0  0
 18 13  1  0  0  0
  9  4  1  0  0  0
 11 12  1  0  0  0
 21 23  1  0  0  0
 21 24  1  0  0  0
 25 26  1  0  0  0
 31 34  1  0  0  0
 31 35  1  0  0  0
  9 10  1  0  0  0
M  END
> <minimizedAffinity>
-8.90661

> <CNNscore>
0.7795989513

> <CNNaffinity>
7.3443779945

> <CNN_VS>
5.7256693840

> <CNNaffinity_variance>
0.2378451377

$$$$
[H]c1c([H])c(S(=O)(=O)N([H])[H])c([H])c([H])c1N([H])c1nc(N([H])[C@]2([H])C([H])([H])C([H])([H])[C@@]([H])(N([H])[H])C([H])([H])C2([H])[H])c2c([H])c([H])n([H])c2n1


 35 38  0  0  0  0  0  0  0  0999 V2000
   -0.1635  -52.0893  -19.9190 N   0  0  0  0  0  0  0  0  0  0  0  0
   -0.7296  -53.2508  -19.4718 C   0  0  0  0  0  0  0  0  0  0  0  0
   -1.0901  -54.1864  -20.3491 N   0  0  0  0  0  0  0  0  0  0  0  0
   -0.8924  -53.9757  -21.6589 C   0  0  0  0  0  0  0  0  0  0  0  0
   -0.3227  -52.8071  -22.1098 C   0  0  0  0  0  0  0  0  0  0  0  0
    0.0578  -51.8245  -21.2132 C   0  0  0  0  0  0  0  0  0  0  0  0
   -0.2437  -52.8694  -23.4999 C   0  0  0  0  0  0  0  0  0  0  0  0
   -0.7735  -54.0889  -23.8670 C   0  0  0  0  0  0  0  0  0  0  0  0
   -1.1560  -54.7371  -22.7575 N   0  0  0  0  0  0  0  0  0  0  0  0
   -1.5894  -55.6730  -22.6928 H   0  0  0  0  0  0  0  0  0  0  0  0
   -0.9480  -53.4278  -18.0840 N   0  0  0  0  0  0  0  0  0  0  0  0
   -0.5563  -54.3301  -17.6160 H   0  0  0  0  0  0  0  0  0  0  0  0
   -1.6213  -52.5794  -17.2002 C   0  0  0  0  0  0  0  0  0  0  0  0
   -2.9339  -52.6733  -16.8611 C   0  0  0  0  0  0  0  0  0  0  0  0
   -3.5619  -51.7697  -15.9916 C   0  0  0  0  0  0  0  0  0  0  0  0
   -2.8621  -50.7359  -15.4375 C   0  0  0  0  0  0  0  0  0  0  0  0
   -1.5251  -50.6102  -15.7590 C   0  0  0  0  0  0  0  0  0  0  0  0
   -0.9292  -51.5005  -16.6093 C   0  0  0  0  0  0  0  0  0  0  0  0
   -3.6158  -49.5807  -14.3423 S   0  0  0  0  0  0  0  0  0  0  0  0
   -2.8746  -49.4958  -13.0403 O   0  0  0  0  0  0  0  0  0  0  0  0
   -5.2441  -49.9683  -14.0233 N   0  0  0  0  0  0  0  0  0  0  0  0
   -3.5483  -48.2299  -15.0020 O   0  0  0  0  0  0  0  0  0  0  0  0
   -5.5413  -50.8951  -14.3589 H   0  0  0  0  0  0  0  0  0  0  0  0
   -5.9138  -49.2032  -14.1427 H   0  0  0  0  0  0  0  0  0  0  0  0
    0.6514  -50.6239  -21.6731 N   0  0  0  0  0  0  0  0  0  0  0  0
    0.2978  -50.2670  -22.6194 H   0  0  0  0  0  0  0  0  0  0  0  0
    1.6590  -49.8650  -20.9984 C   0  0  0  0  0  0  0  0  0  0  0  0
    3.0278  -50.3961  -21.3105 C   0  0  0  0  0  0  0  0  0  0  0  0
    4.1047  -49.6512  -20.5365 C   0  0  0  0  0  0  0  0  0  0  0  0
    3.9971  -48.1534  -20.7964 C   0  0  0  0  0  0  0  0  0  0  0  0
    5.0476  -47.4578  -20.1048 N   0  0  0  0  0  0  0  0  0  0  0  0
    2.6235  -47.7216  -20.3298 C   0  0  0  0  0  0  0  0  0  0  0  0
    1.6094  -48.3770  -21.2783 C   0  0  0  0  0  0  0  0  0  0  0  0
    5.8230  -47.2961  -20.8076 H   0  0  0  0  0  0  0  0  0  0  0  0
    4.7012  -46.5027  -19.8648 H   0  0  0  0  0  0  0  0  0  0  0  0
  1  2  2  0  0  0
  2 11  1  0  0  0
 11 13  1  0  0  0
 13 14  2  0  0  0
 14 15  1  0  0  0
 15 16  2  0  0  0
 16 19  1  0  0  0
 19 20  2  0  0  0
 19 21  1  0  0  0
 19 22  2  0  0  0
 16 17  1  0  0  0
 17 18  2  0  0  0
  2  3  1  0  0  0
  3  4  2  0  0  0
  4  5  1  0  0  0
  5  6  2  0  0  0
  6 25  1  0  0  0
 25 27  1  0  0  0
 27 28  1  0  0  0
 28 29  1  0  0  0
 29 30  1  0  0  0
 30 31  1  0  0  0
 30 32  1  0  0  0
 32 33  1  0  0  0
  5  7  1  0  0  0
  7  8  2  0  0  0
  8  9  1  0  0  0
  6  1  1  0  0  0
 33 27  1  0  0  0
 18 13  1  0  0  0
  9  4  1  0  0  0
 11 12  1  0  0  0
 21 23  1  0  0  0
 21 24  1  0  0  0
 25 26  1  0  0  0
 31 34  1  0  0  0
 31 35  1  0  0  0
  9 10  1  0  0  0
M  END
> <minimizedAffinity>
-7.37578

> <CNNscore>
0.6846899986

> <CNNaffinity>
6.5308341980

> <CNN_VS>
4.4715967178

> <CNNaffinity_variance>
0.1754604280

$$$$
[H]c1c([H])c(S(=O)(=O)N([H])[H])c([H])c([H])c1N([H])c1nc(N([H])[C@]2([H])C([H])([H])C([H])([H])[C@@]([H])(N([H])[H])C([H])([H])C2([H])[H])c2c([H])c([H])n([H])c2n1


 35 38  0  0  0  0  0  0  0  0999 V2000
    0.9353  -52.6274  -21.2709 N   0  0  0  0  0  0  0  0  0  0  0  0
   -0.1077  -53.4411  -20.9257 C   0  0  0  0  0  0  0  0  0  0  0  0
   -0.8113  -54.0483  -21.8802 N   0  0  0  0  0  0  0  0  0  0  0  0
   -0.4864  -53.8526  -23.1668 C   0  0  0  0  0  0  0  0  0  0  0  0
    0.5632  -53.0338  -23.5151 C   0  0  0  0  0  0  0  0  0  0  0  0
    1.3049  -52.3952  -22.5372 C   0  0  0  0  0  0  0  0  0  0  0  0
    0.6634  -53.0223  -24.9052 C   0  0  0  0  0  0  0  0  0  0  0  0
   -0.3394  -53.8440  -25.3761 C   0  0  0  0  0  0  0  0  0  0  0  0
   -1.0166  -54.3318  -24.3268 N   0  0  0  0  0  0  0  0  0  0  0  0
   -1.8244  -54.9759  -24.3431 H   0  0  0  0  0  0  0  0  0  0  0  0
   -0.4393  -53.6033  -19.5586 N   0  0  0  0  0  0  0  0  0  0  0  0
   -0.6680  -54.6074  -19.2038 H   0  0  0  0  0  0  0  0  0  0  0  0
   -0.5201  -52.6214  -18.5668 C   0  0  0  0  0  0  0  0  0  0  0  0
    0.1964  -51.4671  -18.5383 C   0  0  0  0  0  0  0  0  0  0  0  0
    0.0950  -50.5338  -17.4963 C   0  0  0  0  0  0  0  0  0  0  0  0
   -0.7487  -50.7533  -16.4448 C   0  0  0  0  0  0  0  0  0  0  0  0
   -1.4935  -51.9160  -16.4411 C   0  0  0  0  0  0  0  0  0  0  0  0
   -1.3814  -52.8152  -17.4656 C   0  0  0  0  0  0  0  0  0  0  0  0
   -0.9028  -49.6056  -15.1177 S   0  0  0  0  0  0  0  0  0  0  0  0
   -0.0415  -49.9959  -13.9527 O   0  0  0  0  0  0  0  0  0  0  0  0
   -2.5141  -49.4555  -14.5840 N   0  0  0  0  0  0  0  0  0  0  0  0
   -0.4219  -48.2719  -15.6223 O   0  0  0  0  0  0  0  0  0  0  0  0
   -3.1638  -50.1548  -14.9696 H   0  0  0  0  0  0  0  0  0  0  0  0
   -2.8678  -48.4980  -14.5053 H   0  0  0  0  0  0  0  0  0  0  0  0
    2.3905  -51.5580  -22.8918 N   0  0  0  0  0  0  0  0  0  0  0  0
    3.3242  -52.0572  -23.0560 H   0  0  0  0  0  0  0  0  0  0  0  0
    2.3483  -50.1365  -23.0457 C   0  0  0  0  0  0  0  0  0  0  0  0
    2.0608  -49.4645  -21.7346 C   0  0  0  0  0  0  0  0  0  0  0  0
    1.9318  -47.9575  -21.8969 C   0  0  0  0  0  0  0  0  0  0  0  0
    3.1773  -47.3934  -22.5701 C   0  0  0  0  0  0  0  0  0  0  0  0
    3.0744  -45.9638  -22.6751 N   0  0  0  0  0  0  0  0  0  0  0  0
    3.2865  -48.0585  -23.9253 C   0  0  0  0  0  0  0  0  0  0  0  0
    3.5953  -49.5401  -23.6658 C   0  0  0  0  0  0  0  0  0  0  0  0
    3.6072  -45.5568  -21.8554 H   0  0  0  0  0  0  0  0  0  0  0  0
    3.6098  -45.6609  -23.5186 H   0  0  0  0  0  0  0  0  0  0  0  0
  1  2  2  0  0  0
  2 11  1  0  0  0
 11 13  1  0  0  0
 13 14  2  0  0  0
 14 15  1  0  0  0
 15 16  2  0  0  0
 16 19  1  0  0  0
 19 20  2  0  0  0
 19 21  1  0  0  0
 19 22  2  0  0  0
 16 17  1  0  0  0
 17 18  2  0  0  0
  2  3  1  0  0  0
  3  4  2  0  0  0
  4  5  1  0  0  0
  5  6  2  0  0  0
  6 25  1  0  0  0
 25 27  1  0  0  0
 27 28  1  0  0  0
 28 29  1  0  0  0
 29 30  1  0  0  0
 30 31  1  0  0  0
 30 32  1  0  0  0
 32 33  1  0  0  0
  5  7  1  0  0  0
  7  8  2  0  0  0
  8  9  1  0  0  0
  6  1  1  0  0  0
 33 27  1  0  0  0
 18 13  1  0  0  0
  9  4  1  0  0  0
 11 12  1  0  0  0
 21 23  1  0  0  0
 21 24  1  0  0  0
 25 26  1  0  0  0
 31 34  1  0  0  0
 31 35  1  0  0  0
  9 10  1  0  0  0
M  END
> <minimizedAffinity>
-7.42778

> <CNNscore>
0.5728303790

> <CNNaffinity>
6.6181640625

> <CNN_VS>
3.7910854816

> <CNNaffinity_variance>
0.3733933568

$$$$
[H]c1c([H])c(S(=O)(=O)N([H])[H])c([H])c([H])c1N([H])c1nc(N([H])[C@]2([H])C([H])([H])C([H])([H])[C@@]([H])(N([H])[H])C([H])([H])C2([H])[H])c2c([H])c([H])n([H])c2n1


 35 38  0  0  0  0  0  0  0  0999 V2000
    0.2257  -52.5780  -22.9166 N   0  0  0  0  0  0  0  0  0  0  0  0
   -0.5654  -53.6582  -22.6396 C   0  0  0  0  0  0  0  0  0  0  0  0
   -0.8543  -54.5267  -23.6077 N   0  0  0  0  0  0  0  0  0  0  0  0
   -0.3648  -54.3290  -24.8408 C   0  0  0  0  0  0  0  0  0  0  0  0
    0.4315  -53.2421  -25.1204 C   0  0  0  0  0  0  0  0  0  0  0  0
    0.7418  -52.3301  -24.1274 C   0  0  0  0  0  0  0  0  0  0  0  0
    0.7872  -53.2982  -26.4668 C   0  0  0  0  0  0  0  0  0  0  0  0
    0.1922  -54.4312  -26.9813 C   0  0  0  0  0  0  0  0  0  0  0  0
   -0.4915  -55.0353  -25.9990 N   0  0  0  0  0  0  0  0  0  0  0  0
   -1.0458  -55.9052  -26.0604 H   0  0  0  0  0  0  0  0  0  0  0  0
   -1.0867  -53.8207  -21.3331 N   0  0  0  0  0  0  0  0  0  0  0  0
   -1.8665  -54.5663  -21.1831 H   0  0  0  0  0  0  0  0  0  0  0  0
   -0.7310  -53.1329  -20.1692 C   0  0  0  0  0  0  0  0  0  0  0  0
   -1.3324  -53.2667  -18.9580 C   0  0  0  0  0  0  0  0  0  0  0  0
   -0.9504  -52.5226  -17.8322 C   0  0  0  0  0  0  0  0  0  0  0  0
    0.0659  -51.6134  -17.9106 C   0  0  0  0  0  0  0  0  0  0  0  0
    0.7007  -51.4518  -19.1262 C   0  0  0  0  0  0  0  0  0  0  0  0
    0.3145  -52.1858  -20.2138 C   0  0  0  0  0  0  0  0  0  0  0  0
    0.5735  -50.6600  -16.5195 S   0  0  0  0  0  0  0  0  0  0  0  0
    0.6570  -51.5010  -15.2796 O   0  0  0  0  0  0  0  0  0  0  0  0
   -0.4739  -49.3487  -16.2245 N   0  0  0  0  0  0  0  0  0  0  0  0
    1.9524  -50.1355  -16.8164 O   0  0  0  0  0  0  0  0  0  0  0  0
   -1.3476  -49.3627  -16.7687 H   0  0  0  0  0  0  0  0  0  0  0  0
   -0.0219  -48.4372  -16.1099 H   0  0  0  0  0  0  0  0  0  0  0  0
    1.5673  -51.2146  -24.4098 N   0  0  0  0  0  0  0  0  0  0  0  0
    1.1285  -50.4614  -25.0329 H   0  0  0  0  0  0  0  0  0  0  0  0
    2.9050  -51.0122  -23.9456 C   0  0  0  0  0  0  0  0  0  0  0  0
    2.9095  -50.3603  -22.5935 C   0  0  0  0  0  0  0  0  0  0  0  0
    4.3250  -50.0642  -22.1219 C   0  0  0  0  0  0  0  0  0  0  0  0
    5.1642  -51.3361  -22.1486 C   0  0  0  0  0  0  0  0  0  0  0  0
    6.4857  -51.0635  -21.6538 N   0  0  0  0  0  0  0  0  0  0  0  0
    5.1809  -51.8242  -23.5812 C   0  0  0  0  0  0  0  0  0  0  0  0
    3.7492  -52.2697  -23.9120 C   0  0  0  0  0  0  0  0  0  0  0  0
    6.4958  -51.3467  -20.6335 H   0  0  0  0  0  0  0  0  0  0  0  0
    7.1489  -51.7211  -22.1201 H   0  0  0  0  0  0  0  0  0  0  0  0
  1  2  2  0  0  0
  2 11  1  0  0  0
 11 13  1  0  0  0
 13 14  2  0  0  0
 14 15  1  0  0  0
 15 16  2  0  0  0
 16 19  1  0  0  0
 19 20  2  0  0  0
 19 21  1  0  0  0
 19 22  2  0  0  0
 16 17  1  0  0  0
 17 18  2  0  0  0
  2  3  1  0  0  0
  3  4  2  0  0  0
  4  5  1  0  0  0
  5  6  2  0  0  0
  6 25  1  0  0  0
 25 27  1  0  0  0
 27 28  1  0  0  0
 28 29  1  0  0  0
 29 30  1  0  0  0
 30 31  1  0  0  0
 30 32  1  0  0  0
 32 33  1  0  0  0
  5  7  1  0  0  0
  7  8  2  0  0  0
  8  9  1  0  0  0
  6  1  1  0  0  0
 33 27  1  0  0  0
 18 13  1  0  0  0
  9  4  1  0  0  0
 11 12  1  0  0  0
 21 23  1  0  0  0
 21 24  1  0  0  0
 25 26  1  0  0  0
 31 34  1  0  0  0
 31 35  1  0  0  0
  9 10  1  0  0  0
M  END
> <minimizedAffinity>
-7.67300

> <CNNscore>
0.5377659202

> <CNNaffinity>
6.8856096268

> <CNN_VS>
3.7028462887

> <CNNaffinity_variance>
0.2774781883

$$$$
[H]c1c([H])c(S(=O)(=O)N([H])[H])c([H])c([H])c1N([H])c1nc(N([H])[C@]2([H])C([H])([H])C([H])([H])[C@@]([H])(N([H])[H])C([H])([H])C2([H])[H])c2c([H])c([H])n([H])c2n1


 35 38  0  0  0  0  0  0  0  0999 V2000
    0.3913  -51.9260  -22.8750 N   0  0  0  0  0  0  0  0  0  0  0  0
   -0.3015  -52.7921  -22.0755 C   0  0  0  0  0  0  0  0  0  0  0  0
   -0.7242  -53.9525  -22.5753 N   0  0  0  0  0  0  0  0  0  0  0  0
   -0.4641  -54.2547  -23.8559 C   0  0  0  0  0  0  0  0  0  0  0  0
    0.2331  -53.3835  -24.6612 C   0  0  0  0  0  0  0  0  0  0  0  0
    0.6798  -52.1741  -24.1592 C   0  0  0  0  0  0  0  0  0  0  0  0
    0.3507  -53.9587  -25.9253 C   0  0  0  0  0  0  0  0  0  0  0  0
   -0.2852  -55.1809  -25.8591 C   0  0  0  0  0  0  0  0  0  0  0  0
   -0.7660  -55.3429  -24.6182 N   0  0  0  0  0  0  0  0  0  0  0  0
   -1.2920  -56.1513  -24.2472 H   0  0  0  0  0  0  0  0  0  0  0  0
   -0.5814  -52.4284  -20.7360 N   0  0  0  0  0  0  0  0  0  0  0  0
   -1.6041  -52.5417  -20.3787 H   0  0  0  0  0  0  0  0  0  0  0  0
    0.3003  -51.9242  -19.7753 C   0  0  0  0  0  0  0  0  0  0  0  0
    1.6402  -51.7679  -19.9381 C   0  0  0  0  0  0  0  0  0  0  0  0
    2.4793  -51.2860  -18.9228 C   0  0  0  0  0  0  0  0  0  0  0  0
    1.9702  -50.9459  -17.7018 C   0  0  0  0  0  0  0  0  0  0  0  0
    0.6118  -51.0909  -17.5010 C   0  0  0  0  0  0  0  0  0  0  0  0
   -0.1914  -51.5629  -18.5026 C   0  0  0  0  0  0  0  0  0  0  0  0
    2.9916  -50.3383  -16.4021 S   0  0  0  0  0  0  0  0  0  0  0  0
    3.6977  -49.0767  -16.8040 O   0  0  0  0  0  0  0  0  0  0  0  0
    4.1523  -51.4845  -15.9098 N   0  0  0  0  0  0  0  0  0  0  0  0
    2.0914  -50.0146  -15.2405 O   0  0  0  0  0  0  0  0  0  0  0  0
    4.2329  -52.3081  -16.5222 H   0  0  0  0  0  0  0  0  0  0  0  0
    4.2047  -51.6579  -14.9021 H   0  0  0  0  0  0  0  0  0  0  0  0
    1.4043  -51.2786  -24.9829 N   0  0  0  0  0  0  0  0  0  0  0  0
    0.8685  -50.8900  -25.8255 H   0  0  0  0  0  0  0  0  0  0  0  0
    2.7581  -50.8586  -24.7910 C   0  0  0  0  0  0  0  0  0  0  0  0
    2.8208  -49.6335  -23.9258 C   0  0  0  0  0  0  0  0  0  0  0  0
    4.2476  -49.1268  -23.7794 C   0  0  0  0  0  0  0  0  0  0  0  0
    5.1501  -50.2411  -23.2631 C   0  0  0  0  0  0  0  0  0  0  0  0
    6.4861  -49.7450  -23.0769 N   0  0  0  0  0  0  0  0  0  0  0  0
    5.0941  -51.3615  -24.2792 C   0  0  0  0  0  0  0  0  0  0  0  0
    3.6689  -51.9310  -24.2295 C   0  0  0  0  0  0  0  0  0  0  0  0
    6.5818  -49.4987  -22.0514 H   0  0  0  0  0  0  0  0  0  0  0  0
    7.1499  -50.5371  -23.2244 H   0  0  0  0  0  0  0  0  0  0  0  0
  1  2  2  0  0  0
  2 11  1  0  0  0
 11 13  1  0  0  0
 13 14  2  0  0  0
 14 15  1  0  0  0
 15 16  2  0  0  0
 16 19  1  0  0  0
 19 20  2  0  0  0
 19 21  1  0  0  0
 19 22  2  0  0  0
 16 17  1  0  0  0
 17 18  2  0  0  0
  2  3  1  0  0  0
  3  4  2  0  0  0
  4  5  1  0  0  0
  5  6  2  0  0  0
  6 25  1  0  0  0
 25 27  1  0  0  0
 27 28  1  0  0  0
 28 29  1  0  0  0
 29 30  1  0  0  0
 30 31  1  0  0  0
 30 32  1  0  0  0
 32 33  1  0  0  0
  5  7  1  0  0  0
  7  8  2  0  0  0
  8  9  1  0  0  0
  6  1  1  0  0  0
 33 27  1  0  0  0
 18 13  1  0  0  0
  9  4  1  0  0  0
 11 12  1  0  0  0
 21 23  1  0  0  0
 21 24  1  0  0  0
 25 26  1  0  0  0
 31 34  1  0  0  0
 31 35  1  0  0  0
  9 10  1  0  0  0
M  END
> <minimizedAffinity>
-7.03908

> <CNNscore>
0.4659400284

> <CNNaffinity>
6.7663092613

> <CNN_VS>
3.1526942253

> <CNNaffinity_variance>
0.6966004372

$$$$
[H]c1c([H])c(S(=O)(=O)N([H])[H])c([H])c([H])c1N([H])c1nc(N([H])[C@]2([H])C([H])([H])C([H])([H])[C@@]([H])(N([H])[H])C([H])([H])C2([H])[H])c2c([H])c([H])n([H])c2n1


 35 38  0  0  0  0  0  0  0  0999 V2000
    1.6186  -51.1334  -20.9070 N   0  0  0  0  0  0  0  0  0  0  0  0
    1.1607  -52.2477  -21.5536 C   0  0  0  0  0  0  0  0  0  0  0  0
    0.2951  -53.0539  -20.9407 N   0  0  0  0  0  0  0  0  0  0  0  0
   -0.1151  -52.7610  -19.6977 C   0  0  0  0  0  0  0  0  0  0  0  0
    0.3453  -51.6397  -19.0463 C   0  0  0  0  0  0  0  0  0  0  0  0
    1.2445  -50.7912  -19.6673 C   0  0  0  0  0  0  0  0  0  0  0  0
   -0.2470  -51.5951  -17.7854 C   0  0  0  0  0  0  0  0  0  0  0  0
   -1.0636  -52.7032  -17.6979 C   0  0  0  0  0  0  0  0  0  0  0  0
   -0.9740  -53.3887  -18.8465 N   0  0  0  0  0  0  0  0  0  0  0  0
   -1.4616  -54.2647  -19.0967 H   0  0  0  0  0  0  0  0  0  0  0  0
    1.6360  -52.5402  -22.8550 N   0  0  0  0  0  0  0  0  0  0  0  0
    2.6913  -52.7836  -22.9710 H   0  0  0  0  0  0  0  0  0  0  0  0
    0.9167  -52.5583  -24.0537 C   0  0  0  0  0  0  0  0  0  0  0  0
   -0.3700  -52.1500  -24.2086 C   0  0  0  0  0  0  0  0  0  0  0  0
   -1.0497  -52.2235  -25.4333 C   0  0  0  0  0  0  0  0  0  0  0  0
   -0.4298  -52.7191  -26.5449 C   0  0  0  0  0  0  0  0  0  0  0  0
    0.8790  -53.1426  -26.4245 C   0  0  0  0  0  0  0  0  0  0  0  0
    1.5261  -53.0640  -25.2221 C   0  0  0  0  0  0  0  0  0  0  0  0
   -1.2502  -52.8280  -28.0996 S   0  0  0  0  0  0  0  0  0  0  0  0
   -0.6260  -51.9151  -29.1138 O   0  0  0  0  0  0  0  0  0  0  0  0
   -2.9092  -52.4597  -27.9760 N   0  0  0  0  0  0  0  0  0  0  0  0
   -1.0919  -54.2418  -28.5902 O   0  0  0  0  0  0  0  0  0  0  0  0
   -3.1975  -52.0631  -27.0708 H   0  0  0  0  0  0  0  0  0  0  0  0
   -3.5471  -53.1385  -28.4010 H   0  0  0  0  0  0  0  0  0  0  0  0
    1.7144  -49.6324  -19.0028 N   0  0  0  0  0  0  0  0  0  0  0  0
    1.1440  -49.3265  -18.1489 H   0  0  0  0  0  0  0  0  0  0  0  0
    2.8581  -48.8537  -19.3654 C   0  0  0  0  0  0  0  0  0  0  0  0
    4.1192  -49.6547  -19.2194 C   0  0  0  0  0  0  0  0  0  0  0  0
    5.3511  -48.8157  -19.5231 C   0  0  0  0  0  0  0  0  0  0  0  0
    5.2288  -48.1842  -20.9048 C   0  0  0  0  0  0  0  0  0  0  0  0
    6.4164  -47.4345  -21.2094 N   0  0  0  0  0  0  0  0  0  0  0  0
    3.9927  -47.3110  -20.8836 C   0  0  0  0  0  0  0  0  0  0  0  0
    2.7883  -48.2547  -20.7552 C   0  0  0  0  0  0  0  0  0  0  0  0
    7.0332  -48.0626  -21.7981 H   0  0  0  0  0  0  0  0  0  0  0  0
    6.1509  -46.6497  -21.8445 H   0  0  0  0  0  0  0  0  0  0  0  0
  1  2  2  0  0  0
  2 11  1  0  0  0
 11 13  1  0  0  0
 13 14  2  0  0  0
 14 15  1  0  0  0
 15 16  2  0  0  0
 16 19  1  0  0  0
 19 20  2  0  0  0
 19 21  1  0  0  0
 19 22  2  0  0  0
 16 17  1  0  0  0
 17 18  2  0  0  0
  2  3  1  0  0  0
  3  4  2  0  0  0
  4  5  1  0  0  0
  5  6  2  0  0  0
  6 25  1  0  0  0
 25 27  1  0  0  0
 27 28  1  0  0  0
 28 29  1  0  0  0
 29 30  1  0  0  0
 30 31  1  0  0  0
 30 32  1  0  0  0
 32 33  1  0  0  0
  5  7  1  0  0  0
  7  8  2  0  0  0
  8  9  1  0  0  0
  6  1  1  0  0  0
 33 27  1  0  0  0
 18 13  1  0  0  0
  9  4  1  0  0  0
 11 12  1  0  0  0
 21 23  1  0  0  0
 21 24  1  0  0  0
 25 26  1  0  0  0
 31 34  1  0  0  0
 31 35  1  0  0  0
  9 10  1  0  0  0
M  END
> <minimizedAffinity>
-6.64373

> <CNNscore>
0.4026805758

> <CNNaffinity>
6.6824121475

> <CNN_VS>
2.6908776760

> <CNNaffinity_variance>
0.4671071470

$$$$
[H]c1c([H])c(S(=O)(=O)N([H])[H])c([H])c([H])c1N([H])c1nc(N([H])[C@]2([H])C([H])([H])C([H])([H])[C@@]([H])(N([H])[H])C([H])([H])C2([H])[H])c2c([H])c([H])n([H])c2n1


 35 38  0  0  0  0  0  0  0  0999 V2000
    1.0448  -53.4166  -24.6837 N   0  0  0  0  0  0  0  0  0  0  0  0
   -0.2910  -53.4907  -24.4020 C   0  0  0  0  0  0  0  0  0  0  0  0
   -1.1786  -53.3556  -25.3863 N   0  0  0  0  0  0  0  0  0  0  0  0
   -0.7491  -53.1488  -26.6400 C   0  0  0  0  0  0  0  0  0  0  0  0
    0.5952  -53.0742  -26.9244 C   0  0  0  0  0  0  0  0  0  0  0  0
    1.5311  -53.2122  -25.9148 C   0  0  0  0  0  0  0  0  0  0  0  0
    0.7390  -52.8557  -28.2934 C   0  0  0  0  0  0  0  0  0  0  0  0
   -0.5361  -52.8018  -28.8165 C   0  0  0  0  0  0  0  0  0  0  0  0
   -1.4128  -52.9784  -27.8176 N   0  0  0  0  0  0  0  0  0  0  0  0
   -2.4442  -52.9915  -27.8800 H   0  0  0  0  0  0  0  0  0  0  0  0
   -0.7090  -53.6830  -23.0628 N   0  0  0  0  0  0  0  0  0  0  0  0
   -1.3857  -54.5102  -22.8524 H   0  0  0  0  0  0  0  0  0  0  0  0
   -0.3657  -52.9327  -21.9343 C   0  0  0  0  0  0  0  0  0  0  0  0
   -0.1454  -51.5919  -21.9147 C   0  0  0  0  0  0  0  0  0  0  0  0
    0.2294  -50.8991  -20.7543 C   0  0  0  0  0  0  0  0  0  0  0  0
    0.3904  -51.5603  -19.5700 C   0  0  0  0  0  0  0  0  0  0  0  0
    0.1737  -52.9239  -19.5526 C   0  0  0  0  0  0  0  0  0  0  0  0
   -0.1909  -53.5833  -20.6941 C   0  0  0  0  0  0  0  0  0  0  0  0
    0.8608  -50.7254  -18.0923 S   0  0  0  0  0  0  0  0  0  0  0  0
    2.2083  -51.1783  -17.6120 O   0  0  0  0  0  0  0  0  0  0  0  0
   -0.2729  -50.9503  -16.8403 N   0  0  0  0  0  0  0  0  0  0  0  0
    0.9546  -49.2592  -18.4181 O   0  0  0  0  0  0  0  0  0  0  0  0
   -0.9909  -51.6632  -17.0306 H   0  0  0  0  0  0  0  0  0  0  0  0
   -0.5894  -50.0977  -16.3701 H   0  0  0  0  0  0  0  0  0  0  0  0
    2.9155  -53.1436  -26.2051 N   0  0  0  0  0  0  0  0  0  0  0  0
    3.2778  -53.8724  -26.9019 H   0  0  0  0  0  0  0  0  0  0  0  0
    3.8493  -52.2070  -25.6603 C   0  0  0  0  0  0  0  0  0  0  0  0
    3.2628  -50.8257  -25.6245 C   0  0  0  0  0  0  0  0  0  0  0  0
    4.2724  -49.8041  -25.1237 C   0  0  0  0  0  0  0  0  0  0  0  0
    4.8216  -50.2299  -23.7673 C   0  0  0  0  0  0  0  0  0  0  0  0
    5.7361  -49.2371  -23.2736 N   0  0  0  0  0  0  0  0  0  0  0  0
    5.4899  -51.5737  -23.9635 C   0  0  0  0  0  0  0  0  0  0  0  0
    4.3744  -52.5776  -24.2885 C   0  0  0  0  0  0  0  0  0  0  0  0
    5.1900  -48.6212  -22.6075 H   0  0  0  0  0  0  0  0  0  0  0  0
    6.4436  -49.7170  -22.6746 H   0  0  0  0  0  0  0  0  0  0  0  0
  1  2  2  0  0  0
  2 11  1  0  0  0
 11 13  1  0  0  0
 13 14  2  0  0  0
 14 15  1  0  0  0
 15 16  2  0  0  0
 16 19  1  0  0  0
 19 20  2  0  0  0
 19 21  1  0  0  0
 19 22  2  0  0  0
 16 17  1  0  0  0
 17 18  2  0  0  0
  2  3  1  0  0  0
  3  4  2  0  0  0
  4  5  1  0  0  0
  5  6  2  0  0  0
  6 25  1  0  0  0
 25 27  1  0  0  0
 27 28  1  0  0  0
 28 29  1  0  0  0
 29 30  1  0  0  0
 30 31  1  0  0  0
 30 32  1  0  0  0
 32 33  1  0  0  0
  5  7  1  0  0  0
  7  8  2  0  0  0
  8  9  1  0  0  0
  6  1  1  0  0  0
 33 27  1  0  0  0
 18 13  1  0  0  0
  9  4  1  0  0  0
 11 12  1  0  0  0
 21 23  1  0  0  0
 21 24  1  0  0  0
 25 26  1  0  0  0
 31 34  1  0  0  0
 31 35  1  0  0  0
  9 10  1  0  0  0
M  END
> <minimizedAffinity>
-8.05956

> <CNNscore>
0.3943358660

> <CNNaffinity>
6.8126425743

> <CNN_VS>
2.6864693165

> <CNNaffinity_variance>
0.1596056819

$$$$
[H]c1c([H])c(S(=O)(=O)N([H])[H])c([H])c([H])c1N([H])c1nc(N([H])[C@]2([H])C([H])([H])C([H])([H])[C@@]([H])(N([H])[H])C([H])([H])C2([H])[H])c2c([H])c([H])n([H])c2n1


 35 38  0  0  0  0  0  0  0  0999 V2000
   -0.6319  -53.0326  -20.9087 N   0  0  0  0  0  0  0  0  0  0  0  0
   -0.0294  -52.8744  -19.6916 C   0  0  0  0  0  0  0  0  0  0  0  0
    1.1489  -52.2571  -19.6169 N   0  0  0  0  0  0  0  0  0  0  0  0
    1.7275  -51.7993  -20.7371 C   0  0  0  0  0  0  0  0  0  0  0  0
    1.1217  -51.9581  -21.9624 C   0  0  0  0  0  0  0  0  0  0  0  0
   -0.1018  -52.5966  -22.0589 C   0  0  0  0  0  0  0  0  0  0  0  0
    1.9458  -51.3897  -22.9322 C   0  0  0  0  0  0  0  0  0  0  0  0
    3.0468  -50.8924  -22.2666 C   0  0  0  0  0  0  0  0  0  0  0  0
    2.9017  -51.1446  -20.9579 N   0  0  0  0  0  0  0  0  0  0  0  0
    3.5528  -50.9001  -20.1936 H   0  0  0  0  0  0  0  0  0  0  0  0
   -0.6564  -53.3941  -18.5333 N   0  0  0  0  0  0  0  0  0  0  0  0
   -0.5431  -54.4571  -18.3241 H   0  0  0  0  0  0  0  0  0  0  0  0
   -1.4295  -52.7117  -17.5893 C   0  0  0  0  0  0  0  0  0  0  0  0
   -1.0129  -51.6560  -16.8421 C   0  0  0  0  0  0  0  0  0  0  0  0
   -1.8269  -51.0324  -15.8852 C   0  0  0  0  0  0  0  0  0  0  0  0
   -3.1010  -51.4717  -15.6623 C   0  0  0  0  0  0  0  0  0  0  0  0
   -3.5583  -52.5423  -16.4047 C   0  0  0  0  0  0  0  0  0  0  0  0
   -2.7503  -53.1385  -17.3334 C   0  0  0  0  0  0  0  0  0  0  0  0
   -4.1527  -50.7152  -14.4692 S   0  0  0  0  0  0  0  0  0  0  0  0
   -4.7919  -49.4711  -15.0123 O   0  0  0  0  0  0  0  0  0  0  0  0
   -3.3185  -50.3236  -13.0359 N   0  0  0  0  0  0  0  0  0  0  0  0
   -5.2478  -51.6975  -14.1523 O   0  0  0  0  0  0  0  0  0  0  0  0
   -2.2946  -50.4142  -13.0935 H   0  0  0  0  0  0  0  0  0  0  0  0
   -3.7568  -50.6411  -12.1668 H   0  0  0  0  0  0  0  0  0  0  0  0
   -0.7316  -52.7549  -23.3173 N   0  0  0  0  0  0  0  0  0  0  0  0
   -1.7996  -52.8373  -23.2921 H   0  0  0  0  0  0  0  0  0  0  0  0
   -0.0795  -52.8131  -24.5891 C   0  0  0  0  0  0  0  0  0  0  0  0
   -0.2467  -54.1672  -25.2149 C   0  0  0  0  0  0  0  0  0  0  0  0
    0.5099  -54.2708  -26.5304 C   0  0  0  0  0  0  0  0  0  0  0  0
    0.0861  -53.1479  -27.4698 C   0  0  0  0  0  0  0  0  0  0  0  0
    0.7645  -53.2790  -28.7300 N   0  0  0  0  0  0  0  0  0  0  0  0
    0.4170  -51.8437  -26.7767 C   0  0  0  0  0  0  0  0  0  0  0  0
   -0.5184  -51.7394  -25.5635 C   0  0  0  0  0  0  0  0  0  0  0  0
    0.0986  -53.7757  -29.3867 H   0  0  0  0  0  0  0  0  0  0  0  0
    0.8794  -52.3248  -29.1374 H   0  0  0  0  0  0  0  0  0  0  0  0
  1  2  2  0  0  0
  2 11  1  0  0  0
 11 13  1  0  0  0
 13 14  2  0  0  0
 14 15  1  0  0  0
 15 16  2  0  0  0
 16 19  1  0  0  0
 19 20  2  0  0  0
 19 21  1  0  0  0
 19 22  2  0  0  0
 16 17  1  0  0  0
 17 18  2  0  0  0
  2  3  1  0  0  0
  3  4  2  0  0  0
  4  5  1  0  0  0
  5  6  2  0  0  0
  6 25  1  0  0  0
 25 27  1  0  0  0
 27 28  1  0  0  0
 28 29  1  0  0  0
 29 30  1  0  0  0
 30 31  1  0  0  0
 30 32  1  0  0  0
 32 33  1  0  0  0
  5  7  1  0  0  0
  7  8  2  0  0  0
  8  9  1  0  0  0
  6  1  1  0  0  0
 33 27  1  0  0  0
 18 13  1  0  0  0
  9  4  1  0  0  0
 11 12  1  0  0  0
 21 23  1  0  0  0
 21 24  1  0  0  0
 25 26  1  0  0  0
 31 34  1  0  0  0
 31 35  1  0  0  0
  9 10  1  0  0  0
M  END
> <minimizedAffinity>
-8.21023

> <CNNscore>
0.3883696496

> <CNNaffinity>
6.5664749146

> <CNN_VS>
2.5502195358

> <CNNaffinity_variance>
0.2982253134

$$$$
[H]c1c([H])c(S(=O)(=O)N([H])[H])c([H])c([H])c1N([H])c1nc(N([H])[C@]2([H])C([H])([H])C([H])([H])[C@@]([H])(N([H])[H])C([H])([H])C2([H])[H])c2c([H])c([H])n([H])c2n1


 35 38  0  0  0  0  0  0  0  0999 V2000
    0.9479  -53.4259  -24.7354 N   0  0  0  0  0  0  0  0  0  0  0  0
   -0.3848  -53.4818  -24.4352 C   0  0  0  0  0  0  0  0  0  0  0  0
   -1.2841  -53.3062  -25.4023 N   0  0  0  0  0  0  0  0  0  0  0  0
   -0.8693  -53.0771  -26.6571 C   0  0  0  0  0  0  0  0  0  0  0  0
    0.4718  -53.0207  -26.9600 C   0  0  0  0  0  0  0  0  0  0  0  0
    1.4198  -53.2007  -25.9685 C   0  0  0  0  0  0  0  0  0  0  0  0
    0.5995  -52.7717  -28.3254 C   0  0  0  0  0  0  0  0  0  0  0  0
   -0.6820  -52.6813  -28.8276 C   0  0  0  0  0  0  0  0  0  0  0  0
   -1.5470  -52.8657  -27.8200 N   0  0  0  0  0  0  0  0  0  0  0  0
   -2.5792  -52.8580  -27.8669 H   0  0  0  0  0  0  0  0  0  0  0  0
   -0.7865  -53.6987  -23.0948 N   0  0  0  0  0  0  0  0  0  0  0  0
   -1.5109  -54.4885  -22.8998 H   0  0  0  0  0  0  0  0  0  0  0  0
   -0.3719  -53.0163  -21.9473 C   0  0  0  0  0  0  0  0  0  0  0  0
   -0.1565  -53.5782  -20.7290 C   0  0  0  0  0  0  0  0  0  0  0  0
    0.2281  -52.8335  -19.6046 C   0  0  0  0  0  0  0  0  0  0  0  0
    0.4066  -51.4821  -19.6922 C   0  0  0  0  0  0  0  0  0  0  0  0
    0.1974  -50.8772  -20.9157 C   0  0  0  0  0  0  0  0  0  0  0  0
   -0.1780  -51.6193  -22.0017 C   0  0  0  0  0  0  0  0  0  0  0  0
    0.8882  -50.5131  -18.3027 S   0  0  0  0  0  0  0  0  0  0  0  0
   -0.1853  -50.4860  -17.2546 O   0  0  0  0  0  0  0  0  0  0  0  0
    1.2699  -48.9109  -18.7398 N   0  0  0  0  0  0  0  0  0  0  0  0
    2.1042  -51.1658  -17.7027 O   0  0  0  0  0  0  0  0  0  0  0  0
    1.0195  -48.6552  -19.7051 H   0  0  0  0  0  0  0  0  0  0  0  0
    2.1654  -48.5575  -18.3915 H   0  0  0  0  0  0  0  0  0  0  0  0
    2.8007  -53.1510  -26.2781 N   0  0  0  0  0  0  0  0  0  0  0  0
    3.1439  -53.8866  -26.9774 H   0  0  0  0  0  0  0  0  0  0  0  0
    3.7540  -52.2247  -25.7495 C   0  0  0  0  0  0  0  0  0  0  0  0
    3.2277  -50.8204  -25.8126 C   0  0  0  0  0  0  0  0  0  0  0  0
    4.2620  -49.8150  -25.3295 C   0  0  0  0  0  0  0  0  0  0  0  0
    4.7417  -50.1860  -23.9313 C   0  0  0  0  0  0  0  0  0  0  0  0
    5.6800  -49.2059  -23.4574 N   0  0  0  0  0  0  0  0  0  0  0  0
    5.3572  -51.5655  -24.0269 C   0  0  0  0  0  0  0  0  0  0  0  0
    4.2115  -52.5388  -24.3398 C   0  0  0  0  0  0  0  0  0  0  0  0
    5.1373  -48.5310  -22.8480 H   0  0  0  0  0  0  0  0  0  0  0  0
    6.3433  -49.6801  -22.8056 H   0  0  0  0  0  0  0  0  0  0  0  0
  1  2  2  0  0  0
  2 11  1  0  0  0
 11 13  1  0  0  0
 13 14  2  0  0  0
 14 15  1  0  0  0
 15 16  2  0  0  0
 16 19  1  0  0  0
 19 20  2  0  0  0
 19 21  1  0  0  0
 19 22  2  0  0  0
 16 17  1  0  0  0
 17 18  2  0  0  0
  2  3  1  0  0  0
  3  4  2  0  0  0
  4  5  1  0  0  0
  5  6  2  0  0  0
  6 25  1  0  0  0
 25 27  1  0  0  0
 27 28  1  0  0  0
 28 29  1  0  0  0
 29 30  1  0  0  0
 30 31  1  0  0  0
 30 32  1  0  0  0
 32 33  1  0  0  0
  5  7  1  0  0  0
  7  8  2  0  0  0
  8  9  1  0  0  0
  6  1  1  0  0  0
 33 27  1  0  0  0
 18 13  1  0  0  0
  9  4  1  0  0  0
 11 12  1  0  0  0
 21 23  1  0  0  0
 21 24  1  0  0  0
 25 26  1  0  0  0
 31 34  1  0  0  0
 31 35  1  0  0  0
  9 10  1  0  0  0
M  END
> <minimizedAffinity>
-8.22295

> <CNNscore>
0.3844083548

> <CNNaffinity>
6.8129205704

> <CNN_VS>
2.6189436913

> <CNNaffinity_variance>
0.1850439757

$$$$
[H]OC([H])([H])c1c([H])c([H])c(C(=O)N([H])c2sc(N([H])c3c([H])c([H])c4c([H])c([H])c([H])c([H])c4c3[H])nc2C(=O)N([H])[H])c([H])c1[H]


 35 38  0  0  0  0  0  0  0  0999 V2000
   -0.2032  -53.3138  -21.3449 C   0  0  0  0  0  0  0  0  0  0  0  0
   -0.9033  -53.6079  -20.2941 N   0  0  0  0  0  0  0  0  0  0  0  0
   -0.6786  -53.0633  -19.1290 C   0  0  0  0  0  0  0  0  0  0  0  0
    0.6513  -52.0227  -19.5169 S   0  0  0  0  0  0  0  0  0  0  0  0
    0.7957  -52.3978  -21.1880 C   0  0  0  0  0  0  0  0  0  0  0  0
   -1.3817  -55.0604  -22.6841 N   0  0  0  0  0  0  0  0  0  0  0  0
   -0.4723  -53.9443  -22.6671 C   0  0  0  0  0  0  0  0  0  0  0  0
    0.0519  -53.5436  -23.7231 O   0  0  0  0  0  0  0  0  0  0  0  0
   -2.3212  -54.9093  -23.0966 H   0  0  0  0  0  0  0  0  0  0  0  0
   -1.0597  -55.9641  -22.2846 H   0  0  0  0  0  0  0  0  0  0  0  0
    1.7596  -51.8271  -22.0810 N   0  0  0  0  0  0  0  0  0  0  0  0
    3.1150  -51.6826  -21.6943 C   0  0  0  0  0  0  0  0  0  0  0  0
    3.4458  -52.0743  -20.5312 O   0  0  0  0  0  0  0  0  0  0  0  0
    1.5172  -51.4973  -23.0317 H   0  0  0  0  0  0  0  0  0  0  0  0
    4.1201  -51.1210  -22.5435 C   0  0  0  0  0  0  0  0  0  0  0  0
    4.9576  -51.9542  -23.2514 C   0  0  0  0  0  0  0  0  0  0  0  0
    5.9371  -51.4525  -24.0832 C   0  0  0  0  0  0  0  0  0  0  0  0
    6.0652  -50.0868  -24.1957 C   0  0  0  0  0  0  0  0  0  0  0  0
    5.2454  -49.2352  -23.5030 C   0  0  0  0  0  0  0  0  0  0  0  0
    4.2727  -49.7732  -22.6769 C   0  0  0  0  0  0  0  0  0  0  0  0
    7.1034  -49.4801  -25.0777 C   0  0  0  0  0  0  0  0  0  0  0  0
    6.9714  -48.1017  -25.1450 O   0  0  0  0  0  0  0  0  0  0  0  0
    7.2540  -47.7016  -24.2905 H   0  0  0  0  0  0  0  0  0  0  0  0
   -1.3133  -53.2336  -17.8551 N   0  0  0  0  0  0  0  0  0  0  0  0
   -1.6386  -54.2356  -17.6802 H   0  0  0  0  0  0  0  0  0  0  0  0
   -1.5322  -52.2690  -16.8812 C   0  0  0  0  0  0  0  0  0  0  0  0
   -0.5790  -51.5061  -16.2874 C   0  0  0  0  0  0  0  0  0  0  0  0
   -0.9051  -50.5580  -15.3126 C   0  0  0  0  0  0  0  0  0  0  0  0
   -2.2207  -50.3854  -14.9383 C   0  0  0  0  0  0  0  0  0  0  0  0
   -2.6026  -49.4652  -13.9819 C   0  0  0  0  0  0  0  0  0  0  0  0
   -3.9255  -49.3096  -13.6230 C   0  0  0  0  0  0  0  0  0  0  0  0
   -4.9182  -50.0726  -14.2108 C   0  0  0  0  0  0  0  0  0  0  0  0
   -4.5616  -50.9974  -15.1676 C   0  0  0  0  0  0  0  0  0  0  0  0
   -3.2145  -51.1420  -15.5197 C   0  0  0  0  0  0  0  0  0  0  0  0
   -2.8370  -52.0482  -16.4617 C   0  0  0  0  0  0  0  0  0  0  0  0
  6  7  1  0  0  0
  7  8  2  0  0  0
  7  1  1  0  0  0
  1  2  1  0  0  0
  2  3  2  0  0  0
  3 24  1  0  0  0
 24 26  1  0  0  0
 26 27  2  0  0  0
 27 28  1  0  0  0
 28 29  2  0  0  0
 29 30  1  0  0  0
 30 31  2  0  0  0
 31 32  1  0  0  0
 32 33  2  0  0  0
 33 34  1  0  0  0
 34 35  2  0  0  0
  3  4  1  0  0  0
  4  5  1  0  0  0
  5 11  1  0  0  0
 11 12  1  0  0  0
 12 13  2  0  0  0
 12 15  1  0  0  0
 15 16  2  0  0  0
 16 17  1  0  0  0
 17 18  2  0  0  0
 18 21  1  0  0  0
 21 22  1  0  0  0
 18 19  1  0  0  0
 19 20  2  0  0  0
  5  1  2  0  0  0
 20 15  1  0  0  0
 35 26  1  0  0  0
 34 29  1  0  0  0
  6  9  1  0  0  0
  6 10  1  0  0  0
 24 25  1  0  0  0
 11 14  1  0  0  0
 22 23  1  0  0  0
M  END
> <minimizedAffinity>
-7.14924

> <CNNscore>
0.7725942135

> <CNNaffinity>
6.3469238281

> <CNN_VS>
4.9035964012

> <CNNaffinity_variance>
0.0804920793

$$$$
[H]OC([H])([H])c1c([H])c([H])c(C(=O)N([H])c2sc(N([H])c3c([H])c([H])c4c([H])c([H])c([H])c([H])c4c3[H])nc2C(=O)N([H])[H])c([H])c1[H]


 35 38  0  0  0  0  0  0  0  0999 V2000
   -0.0972  -53.4726  -23.0496 C   0  0  0  0  0  0  0  0  0  0  0  0
    0.6604  -53.3605  -24.0956 N   0  0  0  0  0  0  0  0  0  0  0  0
    1.4794  -52.3574  -24.2618 C   0  0  0  0  0  0  0  0  0  0  0  0
    1.1770  -51.4580  -22.8122 S   0  0  0  0  0  0  0  0  0  0  0  0
   -0.0075  -52.4870  -22.1104 C   0  0  0  0  0  0  0  0  0  0  0  0
   -1.2819  -55.4367  -24.0354 N   0  0  0  0  0  0  0  0  0  0  0  0
   -1.0264  -54.6234  -22.8751 C   0  0  0  0  0  0  0  0  0  0  0  0
   -1.5697  -54.8910  -21.7871 O   0  0  0  0  0  0  0  0  0  0  0  0
   -0.8662  -56.3867  -24.0582 H   0  0  0  0  0  0  0  0  0  0  0  0
   -1.8683  -55.0394  -24.7958 H   0  0  0  0  0  0  0  0  0  0  0  0
   -0.6593  -52.2584  -20.8554 N   0  0  0  0  0  0  0  0  0  0  0  0
    0.0527  -52.3637  -19.6349 C   0  0  0  0  0  0  0  0  0  0  0  0
    1.2854  -52.6682  -19.6909 O   0  0  0  0  0  0  0  0  0  0  0  0
   -1.6619  -52.0123  -20.7807 H   0  0  0  0  0  0  0  0  0  0  0  0
   -0.5453  -52.1460  -18.3537 C   0  0  0  0  0  0  0  0  0  0  0  0
   -0.0575  -51.1528  -17.5337 C   0  0  0  0  0  0  0  0  0  0  0  0
   -0.6081  -50.9088  -16.2927 C   0  0  0  0  0  0  0  0  0  0  0  0
   -1.6678  -51.6850  -15.8817 C   0  0  0  0  0  0  0  0  0  0  0  0
   -2.1728  -52.6796  -16.6774 C   0  0  0  0  0  0  0  0  0  0  0  0
   -1.5957  -52.8970  -17.9174 C   0  0  0  0  0  0  0  0  0  0  0  0
   -2.3084  -51.4730  -14.5519 C   0  0  0  0  0  0  0  0  0  0  0  0
   -3.1950  -52.4939  -14.2458 O   0  0  0  0  0  0  0  0  0  0  0  0
   -2.6927  -53.3149  -14.0365 H   0  0  0  0  0  0  0  0  0  0  0  0
    2.3934  -52.0336  -25.3174 N   0  0  0  0  0  0  0  0  0  0  0  0
    2.2220  -52.5984  -26.2074 H   0  0  0  0  0  0  0  0  0  0  0  0
    3.4245  -51.1045  -25.2909 C   0  0  0  0  0  0  0  0  0  0  0  0
    3.4458  -49.9194  -25.9529 C   0  0  0  0  0  0  0  0  0  0  0  0
    4.5375  -49.0505  -25.8597 C   0  0  0  0  0  0  0  0  0  0  0  0
    5.6219  -49.3946  -25.0811 C   0  0  0  0  0  0  0  0  0  0  0  0
    6.7277  -48.5774  -24.9511 C   0  0  0  0  0  0  0  0  0  0  0  0
    7.8019  -48.9423  -24.1662 C   0  0  0  0  0  0  0  0  0  0  0  0
    7.8083  -50.1434  -23.4802 C   0  0  0  0  0  0  0  0  0  0  0  0
    6.7163  -50.9755  -23.5945 C   0  0  0  0  0  0  0  0  0  0  0  0
    5.6350  -50.5894  -24.3952 C   0  0  0  0  0  0  0  0  0  0  0  0
    4.5451  -51.3935  -24.5242 C   0  0  0  0  0  0  0  0  0  0  0  0
  6  7  1  0  0  0
  7  8  2  0  0  0
  7  1  1  0  0  0
  1  2  1  0  0  0
  2  3  2  0  0  0
  3 24  1  0  0  0
 24 26  1  0  0  0
 26 27  2  0  0  0
 27 28  1  0  0  0
 28 29  2  0  0  0
 29 30  1  0  0  0
 30 31  2  0  0  0
 31 32  1  0  0  0
 32 33  2  0  0  0
 33 34  1  0  0  0
 34 35  2  0  0  0
  3  4  1  0  0  0
  4  5  1  0  0  0
  5 11  1  0  0  0
 11 12  1  0  0  0
 12 13  2  0  0  0
 12 15  1  0  0  0
 15 16  2  0  0  0
 16 17  1  0  0  0
 17 18  2  0  0  0
 18 21  1  0  0  0
 21 22  1  0  0  0
 18 19  1  0  0  0
 19 20  2  0  0  0
  5  1  2  0  0  0
 20 15  1  0  0  0
 35 26  1  0  0  0
 34 29  1  0  0  0
  6  9  1  0  0  0
  6 10  1  0  0  0
 24 25  1  0  0  0
 11 14  1  0  0  0
 22 23  1  0  0  0
M  END
> <minimizedAffinity>
-7.54583

> <CNNscore>
0.7634646297

> <CNNaffinity>
6.5675201416

> <CNN_VS>
5.0140695572

> <CNNaffinity_variance>
0.0935974419

$$$$
[H]OC([H])([H])c1c([H])c([H])c(C(=O)N([H])c2sc(N([H])c3c([H])c([H])c4c([H])c([H])c([H])c([H])c4c3[H])nc2C(=O)N([H])[H])c([H])c1[H]


 35 38  0  0  0  0  0  0  0  0999 V2000
   -0.1027  -53.4415  -23.0147 C   0  0  0  0  0  0  0  0  0  0  0  0
    0.6320  -53.3509  -24.0791 N   0  0  0  0  0  0  0  0  0  0  0  0
    1.4389  -52.3462  -24.2885 C   0  0  0  0  0  0  0  0  0  0  0  0
    1.1595  -51.4116  -22.8567 S   0  0  0  0  0  0  0  0  0  0  0  0
   -0.0015  -52.4310  -22.1036 C   0  0  0  0  0  0  0  0  0  0  0  0
   -1.3035  -55.4310  -23.9275 N   0  0  0  0  0  0  0  0  0  0  0  0
   -1.0184  -54.5945  -22.7908 C   0  0  0  0  0  0  0  0  0  0  0  0
   -1.5267  -54.8449  -21.6820 O   0  0  0  0  0  0  0  0  0  0  0  0
   -0.8823  -56.3786  -23.9452 H   0  0  0  0  0  0  0  0  0  0  0  0
   -1.9152  -55.0515  -24.6769 H   0  0  0  0  0  0  0  0  0  0  0  0
   -0.6287  -52.1746  -20.8414 N   0  0  0  0  0  0  0  0  0  0  0  0
    0.0925  -52.3078  -19.6291 C   0  0  0  0  0  0  0  0  0  0  0  0
    1.3110  -52.6624  -19.6989 O   0  0  0  0  0  0  0  0  0  0  0  0
   -1.6195  -51.8877  -20.7554 H   0  0  0  0  0  0  0  0  0  0  0  0
   -0.4812  -52.0645  -18.3414 C   0  0  0  0  0  0  0  0  0  0  0  0
   -1.5391  -52.8337  -17.9102 C   0  0  0  0  0  0  0  0  0  0  0  0
   -2.1182  -52.6332  -16.6743 C   0  0  0  0  0  0  0  0  0  0  0  0
   -1.6142  -51.6381  -15.8680 C   0  0  0  0  0  0  0  0  0  0  0  0
   -0.5626  -50.8584  -16.2721 C   0  0  0  0  0  0  0  0  0  0  0  0
   -0.0053  -51.0872  -17.5191 C   0  0  0  0  0  0  0  0  0  0  0  0
   -2.1946  -51.3697  -14.5208 C   0  0  0  0  0  0  0  0  0  0  0  0
   -1.5610  -50.3062  -13.8967 O   0  0  0  0  0  0  0  0  0  0  0  0
   -1.8196  -49.4641  -14.3372 H   0  0  0  0  0  0  0  0  0  0  0  0
    2.3280  -52.0431  -25.3712 N   0  0  0  0  0  0  0  0  0  0  0  0
    2.2001  -52.6898  -26.2114 H   0  0  0  0  0  0  0  0  0  0  0  0
    3.2874  -51.0412  -25.4254 C   0  0  0  0  0  0  0  0  0  0  0  0
    4.4186  -50.9807  -24.6772 C   0  0  0  0  0  0  0  0  0  0  0  0
    5.3250  -49.9239  -24.8084 C   0  0  0  0  0  0  0  0  0  0  0  0
    5.0746  -48.9155  -25.7145 C   0  0  0  0  0  0  0  0  0  0  0  0
    5.9327  -47.8473  -25.8877 C   0  0  0  0  0  0  0  0  0  0  0  0
    5.6616  -46.8492  -26.8008 C   0  0  0  0  0  0  0  0  0  0  0  0
    4.5172  -46.8844  -27.5767 C   0  0  0  0  0  0  0  0  0  0  0  0
    3.6459  -47.9402  -27.4217 C   0  0  0  0  0  0  0  0  0  0  0  0
    3.9366  -48.9442  -26.4906 C   0  0  0  0  0  0  0  0  0  0  0  0
    3.0921  -49.9970  -26.3190 C   0  0  0  0  0  0  0  0  0  0  0  0
  6  7  1  0  0  0
  7  8  2  0  0  0
  7  1  1  0  0  0
  1  2  1  0  0  0
  2  3  2  0  0  0
  3 24  1  0  0  0
 24 26  1  0  0  0
 26 27  2  0  0  0
 27 28  1  0  0  0
 28 29  2  0  0  0
 29 30  1  0  0  0
 30 31  2  0  0  0
 31 32  1  0  0  0
 32 33  2  0  0  0
 33 34  1  0  0  0
 34 35  2  0  0  0
  3  4  1  0  0  0
  4  5  1  0  0  0
  5 11  1  0  0  0
 11 12  1  0  0  0
 12 13  2  0  0  0
 12 15  1  0  0  0
 15 16  2  0  0  0
 16 17  1  0  0  0
 17 18  2  0  0  0
 18 21  1  0  0  0
 21 22  1  0  0  0
 18 19  1  0  0  0
 19 20  2  0  0  0
  5  1  2  0  0  0
 20 15  1  0  0  0
 35 26  1  0  0  0
 34 29  1  0  0  0
  6  9  1  0  0  0
  6 10  1  0  0  0
 24 25  1  0  0  0
 11 14  1  0  0  0
 22 23  1  0  0  0
M  END
> <minimizedAffinity>
-7.14420

> <CNNscore>
0.6632770896

> <CNNaffinity>
6.5962586403

> <CNN_VS>
4.3751473427

> <CNNaffinity_variance>
0.2167826146

$$$$
[H]OC([H])([H])c1c([H])c([H])c(C(=O)N([H])c2sc(N([H])c3c([H])c([H])c4c([H])c([H])c([H])c([H])c4c3[H])nc2C(=O)N([H])[H])c([H])c1[H]


 35 38  0  0  0  0  0  0  0  0999 V2000
    0.0900  -53.0322  -22.5522 C   0  0  0  0  0  0  0  0  0  0  0  0
   -0.4721  -53.4706  -21.4692 N   0  0  0  0  0  0  0  0  0  0  0  0
   -0.0048  -53.2011  -20.2803 C   0  0  0  0  0  0  0  0  0  0  0  0
    1.3699  -52.2305  -20.6927 S   0  0  0  0  0  0  0  0  0  0  0  0
    1.2081  -52.2647  -22.4035 C   0  0  0  0  0  0  0  0  0  0  0  0
   -1.0872  -54.6325  -24.0643 N   0  0  0  0  0  0  0  0  0  0  0  0
   -0.4557  -53.3489  -23.9013 C   0  0  0  0  0  0  0  0  0  0  0  0
   -0.3820  -52.5576  -24.8600 O   0  0  0  0  0  0  0  0  0  0  0  0
   -2.1194  -54.6518  -24.1633 H   0  0  0  0  0  0  0  0  0  0  0  0
   -0.4853  -55.4795  -24.0755 H   0  0  0  0  0  0  0  0  0  0  0  0
    2.0876  -51.6138  -23.3281 N   0  0  0  0  0  0  0  0  0  0  0  0
    2.1917  -50.2011  -23.3634 C   0  0  0  0  0  0  0  0  0  0  0  0
    1.4796  -49.5328  -22.5499 O   0  0  0  0  0  0  0  0  0  0  0  0
    2.6760  -52.1330  -24.0030 H   0  0  0  0  0  0  0  0  0  0  0  0
    3.0525  -49.4977  -24.2637 C   0  0  0  0  0  0  0  0  0  0  0  0
    4.0076  -48.6405  -23.7638 C   0  0  0  0  0  0  0  0  0  0  0  0
    4.8590  -47.9462  -24.5981 C   0  0  0  0  0  0  0  0  0  0  0  0
    4.7367  -48.1267  -25.9570 C   0  0  0  0  0  0  0  0  0  0  0  0
    3.7955  -48.9733  -26.4810 C   0  0  0  0  0  0  0  0  0  0  0  0
    2.9572  -49.6545  -25.6143 C   0  0  0  0  0  0  0  0  0  0  0  0
    5.6257  -47.4064  -26.9133 C   0  0  0  0  0  0  0  0  0  0  0  0
    4.9870  -46.3122  -27.4761 O   0  0  0  0  0  0  0  0  0  0  0  0
    4.8936  -45.6017  -26.8004 H   0  0  0  0  0  0  0  0  0  0  0  0
   -0.4530  -53.5709  -18.9700 N   0  0  0  0  0  0  0  0  0  0  0  0
   -0.3891  -54.6211  -18.7867 H   0  0  0  0  0  0  0  0  0  0  0  0
   -0.9360  -52.7357  -17.9719 C   0  0  0  0  0  0  0  0  0  0  0  0
   -0.2718  -51.6888  -17.4189 C   0  0  0  0  0  0  0  0  0  0  0  0
   -0.8497  -50.9059  -16.4146 C   0  0  0  0  0  0  0  0  0  0  0  0
   -2.1217  -51.1944  -15.9682 C   0  0  0  0  0  0  0  0  0  0  0  0
   -2.7433  -50.4570  -14.9797 C   0  0  0  0  0  0  0  0  0  0  0  0
   -4.0173  -50.7641  -14.5485 C   0  0  0  0  0  0  0  0  0  0  0  0
   -4.7181  -51.8247  -15.0935 C   0  0  0  0  0  0  0  0  0  0  0  0
   -4.1187  -52.5751  -16.0811 C   0  0  0  0  0  0  0  0  0  0  0  0
   -2.8255  -52.2494  -16.5066 C   0  0  0  0  0  0  0  0  0  0  0  0
   -2.2120  -52.9751  -17.4803 C   0  0  0  0  0  0  0  0  0  0  0  0
  6  7  1  0  0  0
  7  8  2  0  0  0
  7  1  1  0  0  0
  1  2  1  0  0  0
  2  3  2  0  0  0
  3 24  1  0  0  0
 24 26  1  0  0  0
 26 27  2  0  0  0
 27 28  1  0  0  0
 28 29  2  0  0  0
 29 30  1  0  0  0
 30 31  2  0  0  0
 31 32  1  0  0  0
 32 33  2  0  0  0
 33 34  1  0  0  0
 34 35  2  0  0  0
  3  4  1  0  0  0
  4  5  1  0  0  0
  5 11  1  0  0  0
 11 12  1  0  0  0
 12 13  2  0  0  0
 12 15  1  0  0  0
 15 16  2  0  0  0
 16 17  1  0  0  0
 17 18  2  0  0  0
 18 21  1  0  0  0
 21 22  1  0  0  0
 18 19  1  0  0  0
 19 20  2  0  0  0
  5  1  2  0  0  0
 20 15  1  0  0  0
 35 26  1  0  0  0
 34 29  1  0  0  0
  6  9  1  0  0  0
  6 10  1  0  0  0
 24 25  1  0  0  0
 11 14  1  0  0  0
 22 23  1  0  0  0
M  END
> <minimizedAffinity>
-7.43706

> <CNNscore>
0.6399117112

> <CNNaffinity>
6.4732351303

> <CNN_VS>
4.1422991753

> <CNNaffinity_variance>
0.2054442912

$$$$
[H]OC([H])([H])c1c([H])c([H])c(C(=O)N([H])c2sc(N([H])c3c([H])c([H])c4c([H])c([H])c([H])c([H])c4c3[H])nc2C(=O)N([H])[H])c([H])c1[H]


 35 38  0  0  0  0  0  0  0  0999 V2000
    1.0539  -52.0220  -20.7261 C   0  0  0  0  0  0  0  0  0  0  0  0
    0.7936  -52.3051  -19.4880 N   0  0  0  0  0  0  0  0  0  0  0  0
   -0.3397  -52.8353  -19.1151 C   0  0  0  0  0  0  0  0  0  0  0  0
   -1.1478  -52.9622  -20.6424 S   0  0  0  0  0  0  0  0  0  0  0  0
    0.0838  -52.3027  -21.6435 C   0  0  0  0  0  0  0  0  0  0  0  0
    3.5038  -51.7425  -20.3347 N   0  0  0  0  0  0  0  0  0  0  0  0
    2.3520  -51.4172  -21.1351 C   0  0  0  0  0  0  0  0  0  0  0  0
    2.4625  -50.6624  -22.1192 O   0  0  0  0  0  0  0  0  0  0  0  0
    4.2119  -52.3786  -20.7466 H   0  0  0  0  0  0  0  0  0  0  0  0
    3.5757  -51.3286  -19.3842 H   0  0  0  0  0  0  0  0  0  0  0  0
   -0.0062  -52.1418  -23.0641 N   0  0  0  0  0  0  0  0  0  0  0  0
   -0.3895  -53.2222  -23.8969 C   0  0  0  0  0  0  0  0  0  0  0  0
   -0.6489  -54.3362  -23.3426 O   0  0  0  0  0  0  0  0  0  0  0  0
    0.2021  -51.2474  -23.5416 H   0  0  0  0  0  0  0  0  0  0  0  0
   -0.4969  -53.1195  -25.3197 C   0  0  0  0  0  0  0  0  0  0  0  0
   -1.4834  -52.3344  -25.8739 C   0  0  0  0  0  0  0  0  0  0  0  0
   -1.6185  -52.2063  -27.2407 C   0  0  0  0  0  0  0  0  0  0  0  0
   -0.7390  -52.8855  -28.0528 C   0  0  0  0  0  0  0  0  0  0  0  0
    0.2516  -53.6732  -27.5280 C   0  0  0  0  0  0  0  0  0  0  0  0
    0.3583  -53.7789  -26.1512 C   0  0  0  0  0  0  0  0  0  0  0  0
   -0.8305  -52.7899  -29.5381 C   0  0  0  0  0  0  0  0  0  0  0  0
    0.4232  -52.8296  -30.1286 O   0  0  0  0  0  0  0  0  0  0  0  0
    0.7894  -53.7416  -30.0635 H   0  0  0  0  0  0  0  0  0  0  0  0
   -0.8359  -53.2248  -17.8280 N   0  0  0  0  0  0  0  0  0  0  0  0
   -0.3278  -54.0719  -17.4223 H   0  0  0  0  0  0  0  0  0  0  0  0
   -1.8602  -52.6347  -17.1001 C   0  0  0  0  0  0  0  0  0  0  0  0
   -3.1350  -53.0916  -17.0049 C   0  0  0  0  0  0  0  0  0  0  0  0
   -4.0960  -52.4206  -16.2420 C   0  0  0  0  0  0  0  0  0  0  0  0
   -3.7524  -51.2686  -15.5673 C   0  0  0  0  0  0  0  0  0  0  0  0
   -4.6582  -50.5638  -14.7991 C   0  0  0  0  0  0  0  0  0  0  0  0
   -4.2920  -49.4128  -14.1323 C   0  0  0  0  0  0  0  0  0  0  0  0
   -3.0006  -48.9237  -14.2108 C   0  0  0  0  0  0  0  0  0  0  0  0
   -2.0792  -49.6097  -14.9713 C   0  0  0  0  0  0  0  0  0  0  0  0
   -2.4680  -50.7758  -15.6411 C   0  0  0  0  0  0  0  0  0  0  0  0
   -1.5767  -51.4710  -16.3982 C   0  0  0  0  0  0  0  0  0  0  0  0
  6  7  1  0  0  0
  7  8  2  0  0  0
  7  1  1  0  0  0
  1  2  1  0  0  0
  2  3  2  0  0  0
  3 24  1  0  0  0
 24 26  1  0  0  0
 26 27  2  0  0  0
 27 28  1  0  0  0
 28 29  2  0  0  0
 29 30  1  0  0  0
 30 31  2  0  0  0
 31 32  1  0  0  0
 32 33  2  0  0  0
 33 34  1  0  0  0
 34 35  2  0  0  0
  3  4  1  0  0  0
  4  5  1  0  0  0
  5 11  1  0  0  0
 11 12  1  0  0  0
 12 13  2  0  0  0
 12 15  1  0  0  0
 15 16  2  0  0  0
 16 17  1  0  0  0
 17 18  2  0  0  0
 18 21  1  0  0  0
 21 22  1  0  0  0
 18 19  1  0  0  0
 19 20  2  0  0  0
  5  1  2  0  0  0
 20 15  1  0  0  0
 35 26  1  0  0  0
 34 29  1  0  0  0
  6  9  1  0  0  0
  6 10  1  0  0  0
 24 25  1  0  0  0
 11 14  1  0  0  0
 22 23  1  0  0  0
M  END
> <minimizedAffinity>
-9.18340

> <CNNscore>
0.6151751876

> <CNNaffinity>
6.5052962303

> <CNN_VS>
4.0018968582

> <CNNaffinity_variance>
0.0763328671

$$$$
[H]OC([H])([H])c1c([H])c([H])c(C(=O)N([H])c2sc(N([H])c3c([H])c([H])c4c([H])c([H])c([H])c([H])c4c3[H])nc2C(=O)N([H])[H])c([H])c1[H]


 35 38  0  0  0  0  0  0  0  0999 V2000
   -0.3697  -53.0987  -21.5895 C   0  0  0  0  0  0  0  0  0  0  0  0
   -0.7006  -53.5226  -20.4098 N   0  0  0  0  0  0  0  0  0  0  0  0
   -0.4692  -52.8301  -19.3275 C   0  0  0  0  0  0  0  0  0  0  0  0
    0.2935  -51.4294  -20.0045 S   0  0  0  0  0  0  0  0  0  0  0  0
    0.2405  -51.8806  -21.6622 C   0  0  0  0  0  0  0  0  0  0  0  0
   -1.1885  -55.2188  -22.6230 N   0  0  0  0  0  0  0  0  0  0  0  0
   -0.6407  -53.9011  -22.8146 C   0  0  0  0  0  0  0  0  0  0  0  0
   -0.4131  -53.4751  -23.9623 O   0  0  0  0  0  0  0  0  0  0  0  0
   -2.1823  -55.3686  -22.8788 H   0  0  0  0  0  0  0  0  0  0  0  0
   -0.5683  -55.9588  -22.2387 H   0  0  0  0  0  0  0  0  0  0  0  0
    0.7422  -51.0921  -22.7479 N   0  0  0  0  0  0  0  0  0  0  0  0
    2.1102  -51.1428  -23.1138 C   0  0  0  0  0  0  0  0  0  0  0  0
    2.8752  -51.9084  -22.4474 O   0  0  0  0  0  0  0  0  0  0  0  0
    0.1427  -50.4585  -23.3049 H   0  0  0  0  0  0  0  0  0  0  0  0
    2.6662  -50.3792  -24.1881 C   0  0  0  0  0  0  0  0  0  0  0  0
    2.4817  -50.7963  -25.4876 C   0  0  0  0  0  0  0  0  0  0  0  0
    2.9987  -50.0866  -26.5516 C   0  0  0  0  0  0  0  0  0  0  0  0
    3.7118  -48.9390  -26.2895 C   0  0  0  0  0  0  0  0  0  0  0  0
    3.9103  -48.5014  -25.0064 C   0  0  0  0  0  0  0  0  0  0  0  0
    3.3770  -49.2384  -23.9621 C   0  0  0  0  0  0  0  0  0  0  0  0
    4.2970  -48.1260  -27.3941 C   0  0  0  0  0  0  0  0  0  0  0  0
    5.4191  -48.7350  -27.9346 O   0  0  0  0  0  0  0  0  0  0  0  0
    5.1459  -49.5212  -28.4611 H   0  0  0  0  0  0  0  0  0  0  0  0
   -0.7424  -53.0953  -17.9456 N   0  0  0  0  0  0  0  0  0  0  0  0
   -0.0337  -53.7573  -17.4984 H   0  0  0  0  0  0  0  0  0  0  0  0
   -1.7861  -52.5982  -17.1771 C   0  0  0  0  0  0  0  0  0  0  0  0
   -3.0354  -53.1232  -17.0958 C   0  0  0  0  0  0  0  0  0  0  0  0
   -4.0196  -52.5442  -16.2885 C   0  0  0  0  0  0  0  0  0  0  0  0
   -3.7259  -51.4149  -15.5544 C   0  0  0  0  0  0  0  0  0  0  0  0
   -4.6566  -50.7996  -14.7403 C   0  0  0  0  0  0  0  0  0  0  0  0
   -4.3404  -49.6698  -14.0145 C   0  0  0  0  0  0  0  0  0  0  0  0
   -3.0759  -49.1128  -14.0774 C   0  0  0  0  0  0  0  0  0  0  0  0
   -2.1305  -49.7089  -14.8828 C   0  0  0  0  0  0  0  0  0  0  0  0
   -2.4686  -50.8547  -15.6124 C   0  0  0  0  0  0  0  0  0  0  0  0
   -1.5527  -51.4618  -16.4147 C   0  0  0  0  0  0  0  0  0  0  0  0
  6  7  1  0  0  0
  7  8  2  0  0  0
  7  1  1  0  0  0
  1  2  1  0  0  0
  2  3  2  0  0  0
  3 24  1  0  0  0
 24 26  1  0  0  0
 26 27  2  0  0  0
 27 28  1  0  0  0
 28 29  2  0  0  0
 29 30  1  0  0  0
 30 31  2  0  0  0
 31 32  1  0  0  0
 32 33  2  0  0  0
 33 34  1  0  0  0
 34 35  2  0  0  0
  3  4  1  0  0  0
  4  5  1  0  0  0
  5 11  1  0  0  0
 11 12  1  0  0  0
 12 13  2  0  0  0
 12 15  1  0  0  0
 15 16  2  0  0  0
 16 17  1  0  0  0
 17 18  2  0  0  0
 18 21  1  0  0  0
 21 22  1  0  0  0
 18 19  1  0  0  0
 19 20  2  0  0  0
  5  1  2  0  0  0
 20 15  1  0  0  0
 35 26  1  0  0  0
 34 29  1  0  0  0
  6  9  1  0  0  0
  6 10  1  0  0  0
 24 25  1  0  0  0
 11 14  1  0  0  0
 22 23  1  0  0  0
M  END
> <minimizedAffinity>
-7.70336

> <CNNscore>
0.5676905513

> <CNNaffinity>
6.2910590172

> <CNN_VS>
3.5713746548

> <CNNaffinity_variance>
0.1783954799

$$$$
[H]OC([H])([H])c1c([H])c([H])c(C(=O)N([H])c2sc(N([H])c3c([H])c([H])c4c([H])c([H])c([H])c([H])c4c3[H])nc2C(=O)N([H])[H])c([H])c1[H]


 35 38  0  0  0  0  0  0  0  0999 V2000
   -0.1050  -52.6092  -20.3287 C   0  0  0  0  0  0  0  0  0  0  0  0
    0.2640  -52.1364  -19.1793 N   0  0  0  0  0  0  0  0  0  0  0  0
    0.5889  -50.8833  -19.0102 C   0  0  0  0  0  0  0  0  0  0  0  0
    0.3627  -50.2776  -20.6176 S   0  0  0  0  0  0  0  0  0  0  0  0
   -0.1426  -51.7351  -21.3756 C   0  0  0  0  0  0  0  0  0  0  0  0
    0.5406  -55.0173  -20.1965 N   0  0  0  0  0  0  0  0  0  0  0  0
   -0.4724  -54.0418  -20.5050 C   0  0  0  0  0  0  0  0  0  0  0  0
   -1.5963  -54.4048  -20.8993 O   0  0  0  0  0  0  0  0  0  0  0  0
    0.4180  -55.5825  -19.3357 H   0  0  0  0  0  0  0  0  0  0  0  0
    1.3464  -55.1127  -20.8458 H   0  0  0  0  0  0  0  0  0  0  0  0
   -0.4870  -51.8684  -22.7597 N   0  0  0  0  0  0  0  0  0  0  0  0
    0.4426  -52.3865  -23.6952 C   0  0  0  0  0  0  0  0  0  0  0  0
    1.5896  -52.7270  -23.2663 O   0  0  0  0  0  0  0  0  0  0  0  0
   -1.4119  -51.5962  -23.1363 H   0  0  0  0  0  0  0  0  0  0  0  0
    0.1539  -52.5425  -25.0876 C   0  0  0  0  0  0  0  0  0  0  0  0
    1.0805  -53.1399  -25.9131 C   0  0  0  0  0  0  0  0  0  0  0  0
    0.8392  -53.3120  -27.2603 C   0  0  0  0  0  0  0  0  0  0  0  0
   -0.3594  -52.8709  -27.7731 C   0  0  0  0  0  0  0  0  0  0  0  0
   -1.2988  -52.2734  -26.9745 C   0  0  0  0  0  0  0  0  0  0  0  0
   -1.0234  -52.1168  -25.6263 C   0  0  0  0  0  0  0  0  0  0  0  0
   -0.6825  -53.0266  -29.2205 C   0  0  0  0  0  0  0  0  0  0  0  0
    0.3829  -52.6486  -30.0230 O   0  0  0  0  0  0  0  0  0  0  0  0
    1.0983  -53.3225  -29.9600 H   0  0  0  0  0  0  0  0  0  0  0  0
    1.0181  -50.1542  -17.8531 N   0  0  0  0  0  0  0  0  0  0  0  0
    2.0732  -49.9910  -17.8289 H   0  0  0  0  0  0  0  0  0  0  0  0
    0.2318  -49.6674  -16.8178 C   0  0  0  0  0  0  0  0  0  0  0  0
    0.4583  -48.5293  -16.1132 C   0  0  0  0  0  0  0  0  0  0  0  0
   -0.3980  -48.1250  -15.0842 C   0  0  0  0  0  0  0  0  0  0  0  0
   -1.4999  -48.8914  -14.7696 C   0  0  0  0  0  0  0  0  0  0  0  0
   -2.3803  -48.5427  -13.7642 C   0  0  0  0  0  0  0  0  0  0  0  0
   -3.4768  -49.3253  -13.4666 C   0  0  0  0  0  0  0  0  0  0  0  0
   -3.7329  -50.4898  -14.1675 C   0  0  0  0  0  0  0  0  0  0  0  0
   -2.8686  -50.8584  -15.1750 C   0  0  0  0  0  0  0  0  0  0  0  0
   -1.7610  -50.0526  -15.4635 C   0  0  0  0  0  0  0  0  0  0  0  0
   -0.8929  -50.3950  -16.4537 C   0  0  0  0  0  0  0  0  0  0  0  0
  6  7  1  0  0  0
  7  8  2  0  0  0
  7  1  1  0  0  0
  1  2  1  0  0  0
  2  3  2  0  0  0
  3 24  1  0  0  0
 24 26  1  0  0  0
 26 27  2  0  0  0
 27 28  1  0  0  0
 28 29  2  0  0  0
 29 30  1  0  0  0
 30 31  2  0  0  0
 31 32  1  0  0  0
 32 33  2  0  0  0
 33 34  1  0  0  0
 34 35  2  0  0  0
  3  4  1  0  0  0
  4  5  1  0  0  0
  5 11  1  0  0  0
 11 12  1  0  0  0
 12 13  2  0  0  0
 12 15  1  0  0  0
 15 16  2  0  0  0
 16 17  1  0  0  0
 17 18  2  0  0  0
 18 21  1  0  0  0
 21 22  1  0  0  0
 18 19  1  0  0  0
 19 20  2  0  0  0
  5  1  2  0  0  0
 20 15  1  0  0  0
 35 26  1  0  0  0
 34 29  1  0  0  0
  6  9  1  0  0  0
  6 10  1  0  0  0
 24 25  1  0  0  0
 11 14  1  0  0  0
 22 23  1  0  0  0
M  END
> <minimizedAffinity>
-8.15648

> <CNNscore>
0.4726145267

> <CNNaffinity>
6.3443508148

> <CNN_VS>
2.9984323978

> <CNNaffinity_variance>
0.2467169762

$$$$
[H]OC([H])([H])c1c([H])c([H])c(C(=O)N([H])c2sc(N([H])c3c([H])c([H])c4c([H])c([H])c([H])c([H])c4c3[H])nc2C(=O)N([H])[H])c([H])c1[H]


 35 38  0  0  0  0  0  0  0  0999 V2000
    0.3711  -52.0564  -19.8951 C   0  0  0  0  0  0  0  0  0  0  0  0
    0.1385  -52.8775  -20.8711 N   0  0  0  0  0  0  0  0  0  0  0  0
    0.7352  -52.7758  -22.0279 C   0  0  0  0  0  0  0  0  0  0  0  0
    1.7359  -51.3895  -21.7475 S   0  0  0  0  0  0  0  0  0  0  0  0
    1.2785  -51.0634  -20.1231 C   0  0  0  0  0  0  0  0  0  0  0  0
   -1.1754  -53.3294  -18.4048 N   0  0  0  0  0  0  0  0  0  0  0  0
   -0.3183  -52.1860  -18.5813 C   0  0  0  0  0  0  0  0  0  0  0  0
   -0.1766  -51.3580  -17.6622 O   0  0  0  0  0  0  0  0  0  0  0  0
   -0.8478  -54.0832  -17.7722 H   0  0  0  0  0  0  0  0  0  0  0  0
   -2.0800  -53.3502  -18.9158 H   0  0  0  0  0  0  0  0  0  0  0  0
    1.7911  -49.9927  -19.3212 N   0  0  0  0  0  0  0  0  0  0  0  0
    2.9108  -50.1878  -18.4750 C   0  0  0  0  0  0  0  0  0  0  0  0
    3.4428  -51.3418  -18.4506 O   0  0  0  0  0  0  0  0  0  0  0  0
    1.3756  -49.0447  -19.3193 H   0  0  0  0  0  0  0  0  0  0  0  0
    3.4655  -49.1563  -17.6535 C   0  0  0  0  0  0  0  0  0  0  0  0
    4.2248  -48.1615  -18.2284 C   0  0  0  0  0  0  0  0  0  0  0  0
    4.7746  -47.1474  -17.4718 C   0  0  0  0  0  0  0  0  0  0  0  0
    4.5485  -47.1462  -16.1142 C   0  0  0  0  0  0  0  0  0  0  0  0
    3.7970  -48.1234  -15.5165 C   0  0  0  0  0  0  0  0  0  0  0  0
    3.2601  -49.1264  -16.3064 C   0  0  0  0  0  0  0  0  0  0  0  0
    5.1141  -46.0789  -15.2397 C   0  0  0  0  0  0  0  0  0  0  0  0
    6.3266  -46.4628  -14.6879 O   0  0  0  0  0  0  0  0  0  0  0  0
    7.0212  -46.4625  -15.3861 H   0  0  0  0  0  0  0  0  0  0  0  0
    0.6360  -53.5548  -23.2271 N   0  0  0  0  0  0  0  0  0  0  0  0
    1.0514  -54.5334  -23.1261 H   0  0  0  0  0  0  0  0  0  0  0  0
    0.0803  -53.1752  -24.4412 C   0  0  0  0  0  0  0  0  0  0  0  0
   -1.0339  -52.4170  -24.6046 C   0  0  0  0  0  0  0  0  0  0  0  0
   -1.5138  -52.0889  -25.8765 C   0  0  0  0  0  0  0  0  0  0  0  0
   -0.8486  -52.5401  -26.9966 C   0  0  0  0  0  0  0  0  0  0  0  0
   -1.2753  -52.2483  -28.2773 C   0  0  0  0  0  0  0  0  0  0  0  0
   -0.5936  -52.7107  -29.3840 C   0  0  0  0  0  0  0  0  0  0  0  0
    0.5445  -53.4850  -29.2483 C   0  0  0  0  0  0  0  0  0  0  0  0
    0.9894  -53.7892  -27.9805 C   0  0  0  0  0  0  0  0  0  0  0  0
    0.2855  -53.3118  -26.8687 C   0  0  0  0  0  0  0  0  0  0  0  0
    0.7047  -53.5985  -25.6065 C   0  0  0  0  0  0  0  0  0  0  0  0
  6  7  1  0  0  0
  7  8  2  0  0  0
  7  1  1  0  0  0
  1  2  1  0  0  0
  2  3  2  0  0  0
  3 24  1  0  0  0
 24 26  1  0  0  0
 26 27  2  0  0  0
 27 28  1  0  0  0
 28 29  2  0  0  0
 29 30  1  0  0  0
 30 31  2  0  0  0
 31 32  1  0  0  0
 32 33  2  0  0  0
 33 34  1  0  0  0
 34 35  2  0  0  0
  3  4  1  0  0  0
  4  5  1  0  0  0
  5 11  1  0  0  0
 11 12  1  0  0  0
 12 13  2  0  0  0
 12 15  1  0  0  0
 15 16  2  0  0  0
 16 17  1  0  0  0
 17 18  2  0  0  0
 18 21  1  0  0  0
 21 22  1  0  0  0
 18 19  1  0  0  0
 19 20  2  0  0  0
  5  1  2  0  0  0
 20 15  1  0  0  0
 35 26  1  0  0  0
 34 29  1  0  0  0
  6  9  1  0  0  0
  6 10  1  0  0  0
 24 25  1  0  0  0
 11 14  1  0  0  0
 22 23  1  0  0  0
M  END
> <minimizedAffinity>
-7.12327

> <CNNscore>
0.3804351985

> <CNNaffinity>
5.9897284508

> <CNN_VS>
2.2787034512

> <CNNaffinity_variance>
0.4564326704

$$$$
[H]OC([H])([H])c1c([H])c([H])c(C(=O)N([H])c2sc(N([H])c3c([H])c([H])c4c([H])c([H])c([H])c([H])c4c3[H])nc2C(=O)N([H])[H])c([H])c1[H]


 35 38  0  0  0  0  0  0  0  0999 V2000
   -0.3123  -52.4322  -18.7962 C   0  0  0  0  0  0  0  0  0  0  0  0
   -0.8642  -52.9830  -19.8321 N   0  0  0  0  0  0  0  0  0  0  0  0
   -0.3385  -52.9123  -21.0250 C   0  0  0  0  0  0  0  0  0  0  0  0
    1.0827  -51.9797  -20.6904 S   0  0  0  0  0  0  0  0  0  0  0  0
    0.8592  -51.7633  -19.0000 C   0  0  0  0  0  0  0  0  0  0  0  0
   -2.1294  -53.3017  -17.3213 N   0  0  0  0  0  0  0  0  0  0  0  0
   -0.9250  -52.5219  -17.4417 C   0  0  0  0  0  0  0  0  0  0  0  0
   -0.4379  -51.9583  -16.4439 O   0  0  0  0  0  0  0  0  0  0  0  0
   -2.0647  -54.2147  -16.8336 H   0  0  0  0  0  0  0  0  0  0  0  0
   -3.0065  -52.9185  -17.7259 H   0  0  0  0  0  0  0  0  0  0  0  0
    1.7473  -51.0441  -18.1361 N   0  0  0  0  0  0  0  0  0  0  0  0
    1.8195  -49.6297  -18.1798 C   0  0  0  0  0  0  0  0  0  0  0  0
    1.0726  -49.0223  -19.0097 O   0  0  0  0  0  0  0  0  0  0  0  0
    2.3682  -51.5132  -17.4537 H   0  0  0  0  0  0  0  0  0  0  0  0
    2.6861  -48.8597  -17.3415 C   0  0  0  0  0  0  0  0  0  0  0  0
    2.8308  -49.2004  -16.0150 C   0  0  0  0  0  0  0  0  0  0  0  0
    3.6589  -48.4857  -15.1745 C   0  0  0  0  0  0  0  0  0  0  0  0
    4.3477  -47.4117  -15.6907 C   0  0  0  0  0  0  0  0  0  0  0  0
    4.2223  -47.0510  -17.0065 C   0  0  0  0  0  0  0  0  0  0  0  0
    3.3821  -47.7909  -17.8219 C   0  0  0  0  0  0  0  0  0  0  0  0
    5.2589  -46.5976  -14.8359 C   0  0  0  0  0  0  0  0  0  0  0  0
    6.5707  -47.0364  -14.9289 O   0  0  0  0  0  0  0  0  0  0  0  0
    6.9386  -46.7911  -15.8091 H   0  0  0  0  0  0  0  0  0  0  0  0
   -0.7643  -53.4344  -22.2903 N   0  0  0  0  0  0  0  0  0  0  0  0
   -1.5203  -54.1833  -22.2011 H   0  0  0  0  0  0  0  0  0  0  0  0
   -0.3093  -53.0759  -23.5519 C   0  0  0  0  0  0  0  0  0  0  0  0
   -1.0759  -52.6174  -24.5742 C   0  0  0  0  0  0  0  0  0  0  0  0
   -0.5179  -52.2823  -25.8119 C   0  0  0  0  0  0  0  0  0  0  0  0
    0.8399  -52.4165  -26.0097 C   0  0  0  0  0  0  0  0  0  0  0  0
    1.4469  -52.1014  -27.2095 C   0  0  0  0  0  0  0  0  0  0  0  0
    2.8079  -52.2437  -27.3848 C   0  0  0  0  0  0  0  0  0  0  0  0
    3.6139  -52.7083  -26.3613 C   0  0  0  0  0  0  0  0  0  0  0  0
    3.0310  -53.0292  -25.1550 C   0  0  0  0  0  0  0  0  0  0  0  0
    1.6486  -52.8788  -24.9946 C   0  0  0  0  0  0  0  0  0  0  0  0
    1.0494  -53.1888  -23.8131 C   0  0  0  0  0  0  0  0  0  0  0  0
  6  7  1  0  0  0
  7  8  2  0  0  0
  7  1  1  0  0  0
  1  2  1  0  0  0
  2  3  2  0  0  0
  3 24  1  0  0  0
 24 26  1  0  0  0
 26 27  2  0  0  0
 27 28  1  0  0  0
 28 29  2  0  0  0
 29 30  1  0  0  0
 30 31  2  0  0  0
 31 32  1  0  0  0
 32 33  2  0  0  0
 33 34  1  0  0  0
 34 35  2  0  0  0
  3  4  1  0  0  0
  4  5  1  0  0  0
  5 11  1  0  0  0
 11 12  1  0  0  0
 12 13  2  0  0  0
 12 15  1  0  0  0
 15 16  2  0  0  0
 16 17  1  0  0  0
 17 18  2  0  0  0
 18 21  1  0  0  0
 21 22  1  0  0  0
 18 19  1  0  0  0
 19 20  2  0  0  0
  5  1  2  0  0  0
 20 15  1  0  0  0
 35 26  1  0  0  0
 34 29  1  0  0  0
  6  9  1  0  0  0
  6 10  1  0  0  0
 24 25  1  0  0  0
 11 14  1  0  0  0
 22 23  1  0  0  0
M  END
> <minimizedAffinity>
-7.08874

> <CNNscore>
0.3537123203

> <CNNaffinity>
5.8989377022

> <CNN_VS>
2.0865268707

> <CNNaffinity_variance>
0.2439546138

$$$$
[H]c1nc(Oc2c([H])c([H])c(N([H])C(=O)c3c(Cl)c([H])c([H])c([H])c3Cl)c([H])c2[H])c2c([H])c(OC([H])([H])[H])c(OC([H])([H])[H])c([H])c2n1


 33 36  0  0  0  0  0  0  0  0999 V2000
    0.5372  -52.2458  -20.7501 C   0  0  0  0  0  0  0  0  0  0  0  0
    1.0662  -51.1594  -20.1044 C   0  0  0  0  0  0  0  0  0  0  0  0
    0.6942  -50.9135  -18.8003 C   0  0  0  0  0  0  0  0  0  0  0  0
   -0.1821  -51.6710  -18.0501 C   0  0  0  0  0  0  0  0  0  0  0  0
   -0.7034  -52.7971  -18.7772 C   0  0  0  0  0  0  0  0  0  0  0  0
   -0.3526  -53.0521  -20.0524 C   0  0  0  0  0  0  0  0  0  0  0  0
   -0.6027  -51.5263  -16.7782 N   0  0  0  0  0  0  0  0  0  0  0  0
   -1.0235  -51.3816  -15.5047 C   0  0  0  0  0  0  0  0  0  0  0  0
   -0.4791  -51.8448  -14.4612 O   0  0  0  0  0  0  0  0  0  0  0  0
    0.5240  -52.1488  -16.3170 H   0  0  0  0  0  0  0  0  0  0  0  0
   -2.2833  -50.5797  -15.3234 C   0  0  0  0  0  0  0  0  0  0  0  0
   -2.1417  -49.2714  -14.9014 C   0  0  0  0  0  0  0  0  0  0  0  0
   -0.5588  -48.5708  -14.6498 Cl  0  0  0  0  0  0  0  0  0  0  0  0
   -3.3165  -48.5662  -14.7000 C   0  0  0  0  0  0  0  0  0  0  0  0
   -4.5270  -49.1586  -14.9178 C   0  0  0  0  0  0  0  0  0  0  0  0
   -4.6752  -50.4728  -15.3461 C   0  0  0  0  0  0  0  0  0  0  0  0
   -3.4925  -51.1819  -15.5462 C   0  0  0  0  0  0  0  0  0  0  0  0
   -3.5991  -52.8353  -16.1259 Cl  0  0  0  0  0  0  0  0  0  0  0  0
    0.8357  -52.5771  -22.0410 O   0  0  0  0  0  0  0  0  0  0  0  0
    1.2348  -51.8840  -26.1593 C   0  0  0  0  0  0  0  0  0  0  0  0
    1.0865  -52.1324  -24.8208 C   0  0  0  0  0  0  0  0  0  0  0  0
    0.3366  -53.1572  -24.2859 C   0  0  0  0  0  0  0  0  0  0  0  0
    0.2290  -53.3818  -22.9344 C   0  0  0  0  0  0  0  0  0  0  0  0
   -0.5186  -54.4345  -22.5208 N   0  0  0  0  0  0  0  0  0  0  0  0
   -1.1574  -55.2673  -23.3334 C   0  0  0  0  0  0  0  0  0  0  0  0
   -1.0494  -55.0359  -24.6794 N   0  0  0  0  0  0  0  0  0  0  0  0
   -0.3322  -54.0182  -25.1643 C   0  0  0  0  0  0  0  0  0  0  0  0
   -0.2057  -53.7976  -26.5139 C   0  0  0  0  0  0  0  0  0  0  0  0
    0.5651  -52.7447  -27.0556 C   0  0  0  0  0  0  0  0  0  0  0  0
    2.8466  -50.0500  -25.8570 C   0  0  0  0  0  0  0  0  0  0  0  0
    2.0029  -50.8501  -26.6717 O   0  0  0  0  0  0  0  0  0  0  0  0
    0.6956  -52.5186  -28.3447 O   0  0  0  0  0  0  0  0  0  0  0  0
    0.1522  -52.8408  -29.5232 C   0  0  0  0  0  0  0  0  0  0  0  0
 30 31  1  0  0  0
 31 20  1  0  0  0
 20 21  2  0  0  0
 21 22  1  0  0  0
 22 23  2  0  0  0
 23 19  1  0  0  0
 19  1  1  0  0  0
  1  2  2  0  0  0
  2  3  1  0  0  0
  3  4  2  0  0  0
  4  7  1  0  0  0
  7  8  1  0  0  0
  8  9  2  0  0  0
  8 11  1  0  0  0
 11 12  2  0  0  0
 12 13  1  0  0  0
 12 14  1  0  0  0
 14 15  2  0  0  0
 15 16  1  0  0  0
 16 17  2  0  0  0
 17 18  1  0  0  0
  4  5  1  0  0  0
  5  6  2  0  0  0
 23 24  1  0  0  0
 24 25  2  0  0  0
 25 26  1  0  0  0
 26 27  2  0  0  0
 27 28  1  0  0  0
 28 29  2  0  0  0
 29 32  1  0  0  0
 32 33  1  0  0  0
 29 20  1  0  0  0
 27 22  1  0  0  0
  6  1  1  0  0  0
 17 11  1  0  0  0
  7 10  1  0  0  0
M  END
> <minimizedAffinity>
-8.72753

> <CNNscore>
0.6381661892

> <CNNaffinity>
6.9820494652

> <CNN_VS>
4.4557080269

> <CNNaffinity_variance>
0.1224125847

$$$$
[H]c1nc(Oc2c([H])c([H])c(N([H])C(=O)c3c(Cl)c([H])c([H])c([H])c3Cl)c([H])c2[H])c2c([H])c(OC([H])([H])[H])c(OC([H])([H])[H])c([H])c2n1


 33 36  0  0  0  0  0  0  0  0999 V2000
    0.2929  -52.1524  -20.4416 C   0  0  0  0  0  0  0  0  0  0  0  0
   -0.4013  -52.9957  -19.6146 C   0  0  0  0  0  0  0  0  0  0  0  0
   -0.6017  -52.6256  -18.3021 C   0  0  0  0  0  0  0  0  0  0  0  0
   -0.1643  -51.4566  -17.7131 C   0  0  0  0  0  0  0  0  0  0  0  0
    0.5551  -50.6112  -18.6274 C   0  0  0  0  0  0  0  0  0  0  0  0
    0.7619  -50.9571  -19.9127 C   0  0  0  0  0  0  0  0  0  0  0  0
   -0.3124  -50.9974  -16.4550 N   0  0  0  0  0  0  0  0  0  0  0  0
   -0.4605  -50.5380  -15.1954 C   0  0  0  0  0  0  0  0  0  0  0  0
   -0.1579  -51.1350  -14.1221 O   0  0  0  0  0  0  0  0  0  0  0  0
    0.3321  -52.0970  -15.9598 H   0  0  0  0  0  0  0  0  0  0  0  0
   -1.0559  -49.1621  -15.0709 C   0  0  0  0  0  0  0  0  0  0  0  0
   -2.4335  -49.0650  -15.1223 C   0  0  0  0  0  0  0  0  0  0  0  0
   -3.4338  -50.4927  -15.2660 Cl  0  0  0  0  0  0  0  0  0  0  0  0
   -2.9567  -47.7848  -15.0490 C   0  0  0  0  0  0  0  0  0  0  0  0
   -2.1311  -46.7040  -14.9305 C   0  0  0  0  0  0  0  0  0  0  0  0
   -0.7452  -46.7962  -14.8743 C   0  0  0  0  0  0  0  0  0  0  0  0
   -0.2200  -48.0845  -14.9503 C   0  0  0  0  0  0  0  0  0  0  0  0
    1.5210  -48.2832  -14.8452 Cl  0  0  0  0  0  0  0  0  0  0  0  0
    0.5496  -52.4241  -21.7553 O   0  0  0  0  0  0  0  0  0  0  0  0
    1.1088  -51.9618  -25.8872 C   0  0  0  0  0  0  0  0  0  0  0  0
    0.9092  -52.1357  -24.5437 C   0  0  0  0  0  0  0  0  0  0  0  0
    0.1668  -53.1506  -23.9803 C   0  0  0  0  0  0  0  0  0  0  0  0
    0.0065  -53.2988  -22.6234 C   0  0  0  0  0  0  0  0  0  0  0  0
   -0.7274  -54.3486  -22.1792 N   0  0  0  0  0  0  0  0  0  0  0  0
   -1.3052  -55.2477  -22.9665 C   0  0  0  0  0  0  0  0  0  0  0  0
   -1.1450  -55.0925  -24.3183 N   0  0  0  0  0  0  0  0  0  0  0  0
   -0.4372  -54.0827  -24.8328 C   0  0  0  0  0  0  0  0  0  0  0  0
   -0.2580  -53.9378  -26.1867 C   0  0  0  0  0  0  0  0  0  0  0  0
    0.5046  -52.8946  -26.7577 C   0  0  0  0  0  0  0  0  0  0  0  0
    2.8910  -50.2764  -25.6969 C   0  0  0  0  0  0  0  0  0  0  0  0
    1.8681  -50.9358  -26.4279 O   0  0  0  0  0  0  0  0  0  0  0  0
    0.6850  -52.7405  -28.0513 O   0  0  0  0  0  0  0  0  0  0  0  0
    0.0199  -52.7713  -29.2110 C   0  0  0  0  0  0  0  0  0  0  0  0
 30 31  1  0  0  0
 31 20  1  0  0  0
 20 21  2  0  0  0
 21 22  1  0  0  0
 22 23  2  0  0  0
 23 19  1  0  0  0
 19  1  1  0  0  0
  1  2  2  0  0  0
  2  3  1  0  0  0
  3  4  2  0  0  0
  4  7  1  0  0  0
  7  8  1  0  0  0
  8  9  2  0  0  0
  8 11  1  0  0  0
 11 12  2  0  0  0
 12 13  1  0  0  0
 12 14  1  0  0  0
 14 15  2  0  0  0
 15 16  1  0  0  0
 16 17  2  0  0  0
 17 18  1  0  0  0
  4  5  1  0  0  0
  5  6  2  0  0  0
 23 24  1  0  0  0
 24 25  2  0  0  0
 25 26  1  0  0  0
 26 27  2  0  0  0
 27 28  1  0  0  0
 28 29  2  0  0  0
 29 32  1  0  0  0
 32 33  1  0  0  0
 29 20  1  0  0  0
 27 22  1  0  0  0
  6  1  1  0  0  0
 17 11  1  0  0  0
  7 10  1  0  0  0
M  END
> <minimizedAffinity>
-8.23118

> <CNNscore>
0.5316903591

> <CNNaffinity>
6.8463163376

> <CNN_VS>
3.6401205063

> <CNNaffinity_variance>
0.1748084724

$$$$
[H]c1nc(Oc2c([H])c([H])c(N([H])C(=O)c3c(Cl)c([H])c([H])c([H])c3Cl)c([H])c2[H])c2c([H])c(OC([H])([H])[H])c(OC([H])([H])[H])c([H])c2n1


 33 36  0  0  0  0  0  0  0  0999 V2000
    1.9166  -52.2166  -23.9896 C   0  0  0  0  0  0  0  0  0  0  0  0
    1.0544  -51.7638  -24.9531 C   0  0  0  0  0  0  0  0  0  0  0  0
    1.4767  -50.7720  -25.8120 C   0  0  0  0  0  0  0  0  0  0  0  0
    2.7174  -50.1676  -25.8056 C   0  0  0  0  0  0  0  0  0  0  0  0
    3.5795  -50.6832  -24.7764 C   0  0  0  0  0  0  0  0  0  0  0  0
    3.1833  -51.6508  -23.9273 C   0  0  0  0  0  0  0  0  0  0  0  0
    3.2306  -49.2057  -26.5975 N   0  0  0  0  0  0  0  0  0  0  0  0
    3.7444  -48.2430  -27.3906 C   0  0  0  0  0  0  0  0  0  0  0  0
    3.8876  -48.2814  -28.6467 O   0  0  0  0  0  0  0  0  0  0  0  0
    2.9133  -49.9309  -27.7125 H   0  0  0  0  0  0  0  0  0  0  0  0
    4.1949  -46.9923  -26.6864 C   0  0  0  0  0  0  0  0  0  0  0  0
    5.4790  -46.9849  -26.1758 C   0  0  0  0  0  0  0  0  0  0  0  0
    6.5459  -48.3533  -26.3970 Cl  0  0  0  0  0  0  0  0  0  0  0  0
    5.8566  -45.8397  -25.4946 C   0  0  0  0  0  0  0  0  0  0  0  0
    4.9870  -44.7965  -25.3563 C   0  0  0  0  0  0  0  0  0  0  0  0
    3.6957  -44.7970  -25.8712 C   0  0  0  0  0  0  0  0  0  0  0  0
    3.3163  -45.9506  -26.5545 C   0  0  0  0  0  0  0  0  0  0  0  0
    1.7135  -46.0085  -27.2678 Cl  0  0  0  0  0  0  0  0  0  0  0  0
    1.5978  -53.1915  -23.0877 O   0  0  0  0  0  0  0  0  0  0  0  0
    0.8764  -51.8696  -19.1721 C   0  0  0  0  0  0  0  0  0  0  0  0
    1.0866  -52.3155  -20.4497 C   0  0  0  0  0  0  0  0  0  0  0  0
    0.2059  -53.0929  -21.1699 C   0  0  0  0  0  0  0  0  0  0  0  0
    0.4489  -53.5043  -22.4584 C   0  0  0  0  0  0  0  0  0  0  0  0
   -0.4992  -54.2482  -23.0795 N   0  0  0  0  0  0  0  0  0  0  0  0
   -1.6512  -54.6093  -22.5277 C   0  0  0  0  0  0  0  0  0  0  0  0
   -1.8860  -54.1994  -21.2417 N   0  0  0  0  0  0  0  0  0  0  0  0
   -0.9997  -53.4651  -20.5630 C   0  0  0  0  0  0  0  0  0  0  0  0
   -1.2428  -53.0356  -19.2815 C   0  0  0  0  0  0  0  0  0  0  0  0
   -0.3352  -52.2385  -18.5487 C   0  0  0  0  0  0  0  0  0  0  0  0
    3.1629  -51.0523  -18.7759 C   0  0  0  0  0  0  0  0  0  0  0  0
    1.7763  -51.0808  -18.4724 O   0  0  0  0  0  0  0  0  0  0  0  0
   -0.5516  -51.8200  -17.3207 O   0  0  0  0  0  0  0  0  0  0  0  0
   -1.4980  -51.7935  -16.3764 C   0  0  0  0  0  0  0  0  0  0  0  0
 30 31  1  0  0  0
 31 20  1  0  0  0
 20 21  2  0  0  0
 21 22  1  0  0  0
 22 23  2  0  0  0
 23 19  1  0  0  0
 19  1  1  0  0  0
  1  2  2  0  0  0
  2  3  1  0  0  0
  3  4  2  0  0  0
  4  7  1  0  0  0
  7  8  1  0  0  0
  8  9  2  0  0  0
  8 11  1  0  0  0
 11 12  2  0  0  0
 12 13  1  0  0  0
 12 14  1  0  0  0
 14 15  2  0  0  0
 15 16  1  0  0  0
 16 17  2  0  0  0
 17 18  1  0  0  0
  4  5  1  0  0  0
  5  6  2  0  0  0
 23 24  1  0  0  0
 24 25  2  0  0  0
 25 26  1  0  0  0
 26 27  2  0  0  0
 27 28  1  0  0  0
 28 29  2  0  0  0
 29 32  1  0  0  0
 32 33  1  0  0  0
 29 20  1  0  0  0
 27 22  1  0  0  0
  6  1  1  0  0  0
 17 11  1  0  0  0
  7 10  1  0  0  0
M  END
> <minimizedAffinity>
-7.03101

> <CNNscore>
0.4837902188

> <CNNaffinity>
6.7059049606

> <CNN_VS>
3.2442512512

> <CNNaffinity_variance>
0.2607297301

$$$$
[H]c1nc(Oc2c([H])c([H])c(N([H])C(=O)c3c(Cl)c([H])c([H])c([H])c3Cl)c([H])c2[H])c2c([H])c(OC([H])([H])[H])c(OC([H])([H])[H])c([H])c2n1


 33 36  0  0  0  0  0  0  0  0999 V2000
    2.5448  -51.7639  -24.5931 C   0  0  0  0  0  0  0  0  0  0  0  0
    2.4775  -51.7295  -25.9610 C   0  0  0  0  0  0  0  0  0  0  0  0
    2.8942  -50.5929  -26.6199 C   0  0  0  0  0  0  0  0  0  0  0  0
    3.3900  -49.4484  -26.0290 C   0  0  0  0  0  0  0  0  0  0  0  0
    3.4395  -49.5424  -24.5948 C   0  0  0  0  0  0  0  0  0  0  0  0
    3.0351  -50.6443  -23.9339 C   0  0  0  0  0  0  0  0  0  0  0  0
    3.8295  -48.2973  -26.5744 N   0  0  0  0  0  0  0  0  0  0  0  0
    4.2697  -47.1448  -27.1200 C   0  0  0  0  0  0  0  0  0  0  0  0
    5.0954  -46.3274  -26.6201 O   0  0  0  0  0  0  0  0  0  0  0  0
    4.7150  -48.1287  -25.5461 H   0  0  0  0  0  0  0  0  0  0  0  0
    3.7036  -46.8079  -28.4724 C   0  0  0  0  0  0  0  0  0  0  0  0
    2.5187  -46.0970  -28.4997 C   0  0  0  0  0  0  0  0  0  0  0  0
    1.7509  -45.5658  -27.0206 Cl  0  0  0  0  0  0  0  0  0  0  0  0
    1.9945  -45.8357  -29.7547 C   0  0  0  0  0  0  0  0  0  0  0  0
    2.6378  -46.2675  -30.8787 C   0  0  0  0  0  0  0  0  0  0  0  0
    3.8318  -46.9792  -30.8571 C   0  0  0  0  0  0  0  0  0  0  0  0
    4.3570  -47.2434  -29.5939 C   0  0  0  0  0  0  0  0  0  0  0  0
    5.8838  -48.1030  -29.4884 Cl  0  0  0  0  0  0  0  0  0  0  0  0
    2.1550  -52.8374  -23.8439 O   0  0  0  0  0  0  0  0  0  0  0  0
    1.1689  -52.0547  -19.8421 C   0  0  0  0  0  0  0  0  0  0  0  0
    1.4653  -52.3240  -21.1516 C   0  0  0  0  0  0  0  0  0  0  0  0
    0.6301  -52.9758  -22.0326 C   0  0  0  0  0  0  0  0  0  0  0  0
    0.9605  -53.2100  -23.3459 C   0  0  0  0  0  0  0  0  0  0  0  0
    0.0513  -53.8410  -24.1291 N   0  0  0  0  0  0  0  0  0  0  0  0
   -1.1413  -54.2507  -23.7145 C   0  0  0  0  0  0  0  0  0  0  0  0
   -1.4634  -54.0177  -22.4034 N   0  0  0  0  0  0  0  0  0  0  0  0
   -0.6200  -53.4029  -21.5690 C   0  0  0  0  0  0  0  0  0  0  0  0
   -0.9498  -53.1497  -20.2601 C   0  0  0  0  0  0  0  0  0  0  0  0
   -0.0884  -52.4808  -19.3620 C   0  0  0  0  0  0  0  0  0  0  0  0
    3.3095  -50.9348  -19.3768 C   0  0  0  0  0  0  0  0  0  0  0  0
    2.0248  -51.3892  -18.9784 O   0  0  0  0  0  0  0  0  0  0  0  0
   -0.3878  -52.2316  -18.1058 O   0  0  0  0  0  0  0  0  0  0  0  0
   -1.1974  -52.6398  -17.1229 C   0  0  0  0  0  0  0  0  0  0  0  0
 30 31  1  0  0  0
 31 20  1  0  0  0
 20 21  2  0  0  0
 21 22  1  0  0  0
 22 23  2  0  0  0
 23 19  1  0  0  0
 19  1  1  0  0  0
  1  2  2  0  0  0
  2  3  1  0  0  0
  3  4  2  0  0  0
  4  7  1  0  0  0
  7  8  1  0  0  0
  8  9  2  0  0  0
  8 11  1  0  0  0
 11 12  2  0  0  0
 12 13  1  0  0  0
 12 14  1  0  0  0
 14 15  2  0  0  0
 15 16  1  0  0  0
 16 17  2  0  0  0
 17 18  1  0  0  0
  4  5  1  0  0  0
  5  6  2  0  0  0
 23 24  1  0  0  0
 24 25  2  0  0  0
 25 26  1  0  0  0
 26 27  2  0  0  0
 27 28  1  0  0  0
 28 29  2  0  0  0
 29 32  1  0  0  0
 32 33  1  0  0  0
 29 20  1  0  0  0
 27 22  1  0  0  0
  6  1  1  0  0  0
 17 11  1  0  0  0
  7 10  1  0  0  0
M  END
> <minimizedAffinity>
-7.17187

> <CNNscore>
0.4307354689

> <CNNaffinity>
6.7297310829

> <CNN_VS>
2.8987338543

> <CNNaffinity_variance>
0.2910984755

$$$$
[H]c1nc(Oc2c([H])c([H])c(N([H])C(=O)c3c(Cl)c([H])c([H])c([H])c3Cl)c([H])c2[H])c2c([H])c(OC([H])([H])[H])c(OC([H])([H])[H])c([H])c2n1


 33 36  0  0  0  0  0  0  0  0999 V2000
    0.1182  -52.1048  -20.9199 C   0  0  0  0  0  0  0  0  0  0  0  0
   -0.4899  -52.9884  -20.0676 C   0  0  0  0  0  0  0  0  0  0  0  0
   -0.5909  -52.6633  -18.7320 C   0  0  0  0  0  0  0  0  0  0  0  0
   -0.1310  -51.5033  -18.1425 C   0  0  0  0  0  0  0  0  0  0  0  0
    0.4951  -50.6142  -19.0837 C   0  0  0  0  0  0  0  0  0  0  0  0
    0.6042  -50.9159  -20.3919 C   0  0  0  0  0  0  0  0  0  0  0  0
   -0.1861  -51.0863  -16.8624 N   0  0  0  0  0  0  0  0  0  0  0  0
   -0.2411  -50.6691  -15.5807 C   0  0  0  0  0  0  0  0  0  0  0  0
    0.3189  -51.1995  -14.5782 O   0  0  0  0  0  0  0  0  0  0  0  0
    0.7213  -52.0408  -16.4947 H   0  0  0  0  0  0  0  0  0  0  0  0
   -1.0668  -49.4362  -15.3331 C   0  0  0  0  0  0  0  0  0  0  0  0
   -0.3954  -48.2296  -15.2769 C   0  0  0  0  0  0  0  0  0  0  0  0
    1.3314  -48.1446  -15.5430 Cl  0  0  0  0  0  0  0  0  0  0  0  0
   -1.1699  -47.1141  -15.0053 C   0  0  0  0  0  0  0  0  0  0  0  0
   -2.5160  -47.2348  -14.8123 C   0  0  0  0  0  0  0  0  0  0  0  0
   -3.1970  -48.4452  -14.8717 C   0  0  0  0  0  0  0  0  0  0  0  0
   -2.4163  -49.5670  -15.1428 C   0  0  0  0  0  0  0  0  0  0  0  0
   -3.2126  -51.1259  -15.2733 Cl  0  0  0  0  0  0  0  0  0  0  0  0
    0.2733  -52.3302  -22.2580 O   0  0  0  0  0  0  0  0  0  0  0  0
    1.4100  -52.4207  -26.2953 C   0  0  0  0  0  0  0  0  0  0  0  0
    1.0232  -52.4154  -24.9816 C   0  0  0  0  0  0  0  0  0  0  0  0
    0.2283  -53.3718  -24.3883 C   0  0  0  0  0  0  0  0  0  0  0  0
   -0.1219  -53.3375  -23.0598 C   0  0  0  0  0  0  0  0  0  0  0  0
   -0.8906  -54.3446  -22.5771 N   0  0  0  0  0  0  0  0  0  0  0  0
   -1.3312  -55.3662  -23.3011 C   0  0  0  0  0  0  0  0  0  0  0  0
   -0.9819  -55.3928  -24.6256 N   0  0  0  0  0  0  0  0  0  0  0  0
   -0.2282  -54.4361  -25.1751 C   0  0  0  0  0  0  0  0  0  0  0  0
    0.1404  -54.4725  -26.4976 C   0  0  0  0  0  0  0  0  0  0  0  0
    0.9559  -53.4883  -27.0995 C   0  0  0  0  0  0  0  0  0  0  0  0
    3.2632  -50.8091  -26.1491 C   0  0  0  0  0  0  0  0  0  0  0  0
    2.2181  -51.4496  -26.8656 O   0  0  0  0  0  0  0  0  0  0  0  0
    1.3168  -53.5072  -28.3641 O   0  0  0  0  0  0  0  0  0  0  0  0
    2.0686  -54.1990  -29.2269 C   0  0  0  0  0  0  0  0  0  0  0  0
 30 31  1  0  0  0
 31 20  1  0  0  0
 20 21  2  0  0  0
 21 22  1  0  0  0
 22 23  2  0  0  0
 23 19  1  0  0  0
 19  1  1  0  0  0
  1  2  2  0  0  0
  2  3  1  0  0  0
  3  4  2  0  0  0
  4  7  1  0  0  0
  7  8  1  0  0  0
  8  9  2  0  0  0
  8 11  1  0  0  0
 11 12  2  0  0  0
 12 13  1  0  0  0
 12 14  1  0  0  0
 14 15  2  0  0  0
 15 16  1  0  0  0
 16 17  2  0  0  0
 17 18  1  0  0  0
  4  5  1  0  0  0
  5  6  2  0  0  0
 23 24  1  0  0  0
 24 25  2  0  0  0
 25 26  1  0  0  0
 26 27  2  0  0  0
 27 28  1  0  0  0
 28 29  2  0  0  0
 29 32  1  0  0  0
 32 33  1  0  0  0
 29 20  1  0  0  0
 27 22  1  0  0  0
  6  1  1  0  0  0
 17 11  1  0  0  0
  7 10  1  0  0  0
M  END
> <minimizedAffinity>
-7.82187

> <CNNscore>
0.3977577984

> <CNNaffinity>
6.7648100853

> <CNN_VS>
2.6907560825

> <CNNaffinity_variance>
0.1732819825

$$$$
[H]c1nc(Oc2c([H])c([H])c(N([H])C(=O)c3c(Cl)c([H])c([H])c([H])c3Cl)c([H])c2[H])c2c([H])c(OC([H])([H])[H])c(OC([H])([H])[H])c([H])c2n1


 33 36  0  0  0  0  0  0  0  0999 V2000
    0.4302  -51.9303  -20.6105 C   0  0  0  0  0  0  0  0  0  0  0  0
   -0.2046  -52.7387  -19.7047 C   0  0  0  0  0  0  0  0  0  0  0  0
   -0.2694  -52.3401  -18.3869 C   0  0  0  0  0  0  0  0  0  0  0  0
    0.2531  -51.1739  -17.8656 C   0  0  0  0  0  0  0  0  0  0  0  0
    0.9048  -50.3655  -18.8607 C   0  0  0  0  0  0  0  0  0  0  0  0
    0.9792  -50.7397  -20.1525 C   0  0  0  0  0  0  0  0  0  0  0  0
    0.2376  -50.6886  -16.6087 N   0  0  0  0  0  0  0  0  0  0  0  0
    0.2218  -50.2026  -15.3504 C   0  0  0  0  0  0  0  0  0  0  0  0
   -0.7652  -49.7079  -14.7331 O   0  0  0  0  0  0  0  0  0  0  0  0
   -1.1162  -50.5091  -16.6767 H   0  0  0  0  0  0  0  0  0  0  0  0
    1.5326  -50.2605  -14.6145 C   0  0  0  0  0  0  0  0  0  0  0  0
    1.7409  -51.3449  -13.7836 C   0  0  0  0  0  0  0  0  0  0  0  0
    0.5502  -52.6190  -13.6472 Cl  0  0  0  0  0  0  0  0  0  0  0  0
    2.9361  -51.3550  -13.0839 C   0  0  0  0  0  0  0  0  0  0  0  0
    3.8349  -50.3382  -13.2320 C   0  0  0  0  0  0  0  0  0  0  0  0
    3.6323  -49.2471  -14.0693 C   0  0  0  0  0  0  0  0  0  0  0  0
    2.4286  -49.2372  -14.7710 C   0  0  0  0  0  0  0  0  0  0  0  0
    2.1199  -47.9112  -15.8791 Cl  0  0  0  0  0  0  0  0  0  0  0  0
    0.5536  -52.2322  -21.9368 O   0  0  0  0  0  0  0  0  0  0  0  0
    1.1306  -52.2453  -26.0921 C   0  0  0  0  0  0  0  0  0  0  0  0
    0.9249  -52.2643  -24.7384 C   0  0  0  0  0  0  0  0  0  0  0  0
    0.1702  -53.2016  -24.0671 C   0  0  0  0  0  0  0  0  0  0  0  0
    0.0042  -53.1939  -22.7029 C   0  0  0  0  0  0  0  0  0  0  0  0
   -0.7420  -54.1795  -22.1461 N   0  0  0  0  0  0  0  0  0  0  0  0
   -1.3267  -55.1559  -22.8293 C   0  0  0  0  0  0  0  0  0  0  0  0
   -1.1606  -55.1560  -24.1893 N   0  0  0  0  0  0  0  0  0  0  0  0
   -0.4407  -54.2180  -24.8115 C   0  0  0  0  0  0  0  0  0  0  0  0
   -0.2558  -54.2288  -26.1723 C   0  0  0  0  0  0  0  0  0  0  0  0
    0.5195  -53.2644  -26.8542 C   0  0  0  0  0  0  0  0  0  0  0  0
    2.6553  -50.3151  -26.0427 C   0  0  0  0  0  0  0  0  0  0  0  0
    1.9022  -51.2947  -26.7420 O   0  0  0  0  0  0  0  0  0  0  0  0
    0.7055  -53.2593  -28.1562 O   0  0  0  0  0  0  0  0  0  0  0  0
    0.0941  -52.9292  -29.2987 C   0  0  0  0  0  0  0  0  0  0  0  0
 30 31  1  0  0  0
 31 20  1  0  0  0
 20 21  2  0  0  0
 21 22  1  0  0  0
 22 23  2  0  0  0
 23 19  1  0  0  0
 19  1  1  0  0  0
  1  2  2  0  0  0
  2  3  1  0  0  0
  3  4  2  0  0  0
  4  7  1  0  0  0
  7  8  1  0  0  0
  8  9  2  0  0  0
  8 11  1  0  0  0
 11 12  2  0  0  0
 12 13  1  0  0  0
 12 14  1  0  0  0
 14 15  2  0  0  0
 15 16  1  0  0  0
 16 17  2  0  0  0
 17 18  1  0  0  0
  4  5  1  0  0  0
  5  6  2  0  0  0
 23 24  1  0  0  0
 24 25  2  0  0  0
 25 26  1  0  0  0
 26 27  2  0  0  0
 27 28  1  0  0  0
 28 29  2  0  0  0
 29 32  1  0  0  0
 32 33  1  0  0  0
 29 20  1  0  0  0
 27 22  1  0  0  0
  6  1  1  0  0  0
 17 11  1  0  0  0
  7 10  1  0  0  0
M  END
> <minimizedAffinity>
-7.81165

> <CNNscore>
0.3543012142

> <CNNaffinity>
6.7624120712

> <CNN_VS>
2.3959307671

> <CNNaffinity_variance>
0.1503120363

$$$$
[H]c1nc(Oc2c([H])c([H])c(N([H])C(=O)c3c(Cl)c([H])c([H])c([H])c3Cl)c([H])c2[H])c2c([H])c(OC([H])([H])[H])c(OC([H])([H])[H])c([H])c2n1


 33 36  0  0  0  0  0  0  0  0999 V2000
    0.8717  -51.7271  -20.2141 C   0  0  0  0  0  0  0  0  0  0  0  0
    1.2510  -50.4261  -20.0130 C   0  0  0  0  0  0  0  0  0  0  0  0
    0.9272  -49.8146  -18.8210 C   0  0  0  0  0  0  0  0  0  0  0  0
    0.2401  -50.3929  -17.7730 C   0  0  0  0  0  0  0  0  0  0  0  0
   -0.1301  -51.7570  -18.0390 C   0  0  0  0  0  0  0  0  0  0  0  0
    0.1764  -52.3702  -19.1985 C   0  0  0  0  0  0  0  0  0  0  0  0
   -0.1166  -49.8933  -16.5736 N   0  0  0  0  0  0  0  0  0  0  0  0
   -0.4735  -49.3929  -15.3727 C   0  0  0  0  0  0  0  0  0  0  0  0
    0.1192  -48.4916  -14.7121 O   0  0  0  0  0  0  0  0  0  0  0  0
    0.8786  -48.9586  -16.6481 H   0  0  0  0  0  0  0  0  0  0  0  0
   -1.7151  -49.9856  -14.7643 C   0  0  0  0  0  0  0  0  0  0  0  0
   -1.6186  -51.2691  -14.2609 C   0  0  0  0  0  0  0  0  0  0  0  0
   -0.0987  -52.1346  -14.2817 Cl  0  0  0  0  0  0  0  0  0  0  0  0
   -2.7846  -51.8098  -13.7450 C   0  0  0  0  0  0  0  0  0  0  0  0
   -3.9436  -51.0884  -13.7468 C   0  0  0  0  0  0  0  0  0  0  0  0
   -4.0453  -49.7958  -14.2481 C   0  0  0  0  0  0  0  0  0  0  0  0
   -2.8721  -49.2538  -14.7689 C   0  0  0  0  0  0  0  0  0  0  0  0
   -2.9136  -47.6101  -15.3835 Cl  0  0  0  0  0  0  0  0  0  0  0  0
    1.1386  -52.4239  -21.3581 O   0  0  0  0  0  0  0  0  0  0  0  0
    0.9684  -51.6172  -25.4715 C   0  0  0  0  0  0  0  0  0  0  0  0
    1.0040  -51.9015  -24.1324 C   0  0  0  0  0  0  0  0  0  0  0  0
    0.2822  -52.9014  -23.5176 C   0  0  0  0  0  0  0  0  0  0  0  0
    0.3613  -53.1645  -22.1711 C   0  0  0  0  0  0  0  0  0  0  0  0
   -0.3777  -54.1884  -21.6773 N   0  0  0  0  0  0  0  0  0  0  0  0
   -1.1765  -54.9580  -22.4065 C   0  0  0  0  0  0  0  0  0  0  0  0
   -1.2540  -54.6883  -23.7475 N   0  0  0  0  0  0  0  0  0  0  0  0
   -0.5575  -53.6954  -24.3081 C   0  0  0  0  0  0  0  0  0  0  0  0
   -0.6179  -53.4373  -25.6556 C   0  0  0  0  0  0  0  0  0  0  0  0
    0.1252  -52.4103  -26.2795 C   0  0  0  0  0  0  0  0  0  0  0  0
    3.0835  -50.7678  -26.3975 C   0  0  0  0  0  0  0  0  0  0  0  0
    1.7120  -50.6100  -26.0664 O   0  0  0  0  0  0  0  0  0  0  0  0
    0.0780  -52.1489  -27.5676 O   0  0  0  0  0  0  0  0  0  0  0  0
    0.0228  -52.7576  -28.7569 C   0  0  0  0  0  0  0  0  0  0  0  0
 30 31  1  0  0  0
 31 20  1  0  0  0
 20 21  2  0  0  0
 21 22  1  0  0  0
 22 23  2  0  0  0
 23 19  1  0  0  0
 19  1  1  0  0  0
  1  2  2  0  0  0
  2  3  1  0  0  0
  3  4  2  0  0  0
  4  7  1  0  0  0
  7  8  1  0  0  0
  8  9  2  0  0  0
  8 11  1  0  0  0
 11 12  2  0  0  0
 12 13  1  0  0  0
 12 14  1  0  0  0
 14 15  2  0  0  0
 15 16  1  0  0  0
 16 17  2  0  0  0
 17 18  1  0  0  0
  4  5  1  0  0  0
  5  6  2  0  0  0
 23 24  1  0  0  0
 24 25  2  0  0  0
 25 26  1  0  0  0
 26 27  2  0  0  0
 27 28  1  0  0  0
 28 29  2  0  0  0
 29 32  1  0  0  0
 32 33  1  0  0  0
 29 20  1  0  0  0
 27 22  1  0  0  0
  6  1  1  0  0  0
 17 11  1  0  0  0
  7 10  1  0  0  0
M  END
> <minimizedAffinity>
-7.84910

> <CNNscore>
0.3197349608

> <CNNaffinity>
6.6799039841

> <CNN_VS>
2.1357989311

> <CNNaffinity_variance>
0.2338244915

$$$$
[H]c1nc(Oc2c([H])c([H])c(N([H])C(=O)c3c(Cl)c([H])c([H])c([H])c3Cl)c([H])c2[H])c2c([H])c(OC([H])([H])[H])c(OC([H])([H])[H])c([H])c2n1


 33 36  0  0  0  0  0  0  0  0999 V2000
   -0.0217  -52.7756  -20.1216 C   0  0  0  0  0  0  0  0  0  0  0  0
   -0.9462  -53.0463  -21.0958 C   0  0  0  0  0  0  0  0  0  0  0  0
   -0.6698  -52.6818  -22.3960 C   0  0  0  0  0  0  0  0  0  0  0  0
    0.4777  -52.0537  -22.8359 C   0  0  0  0  0  0  0  0  0  0  0  0
    1.4110  -51.7968  -21.7723 C   0  0  0  0  0  0  0  0  0  0  0  0
    1.1573  -52.1444  -20.4959 C   0  0  0  0  0  0  0  0  0  0  0  0
    0.8487  -51.6658  -24.0718 N   0  0  0  0  0  0  0  0  0  0  0  0
    1.2202  -51.2771  -25.3090 C   0  0  0  0  0  0  0  0  0  0  0  0
    1.9067  -50.2608  -25.6183 O   0  0  0  0  0  0  0  0  0  0  0  0
    1.6092  -50.6585  -23.5456 H   0  0  0  0  0  0  0  0  0  0  0  0
    0.7559  -52.1603  -26.4348 C   0  0  0  0  0  0  0  0  0  0  0  0
    1.7214  -52.8901  -27.1019 C   0  0  0  0  0  0  0  0  0  0  0  0
    3.3992  -52.8274  -26.6113 Cl  0  0  0  0  0  0  0  0  0  0  0  0
    1.2765  -53.6626  -28.1618 C   0  0  0  0  0  0  0  0  0  0  0  0
   -0.0461  -53.6810  -28.4993 C   0  0  0  0  0  0  0  0  0  0  0  0
   -1.0221  -52.9522  -27.8293 C   0  0  0  0  0  0  0  0  0  0  0  0
   -0.5728  -52.1737  -26.7645 C   0  0  0  0  0  0  0  0  0  0  0  0
   -1.7539  -51.2567  -25.8450 Cl  0  0  0  0  0  0  0  0  0  0  0  0
   -0.1974  -53.0908  -18.8043 O   0  0  0  0  0  0  0  0  0  0  0  0
    0.8265  -49.5858  -16.7389 C   0  0  0  0  0  0  0  0  0  0  0  0
    0.4685  -50.7323  -17.3965 C   0  0  0  0  0  0  0  0  0  0  0  0
   -0.6799  -51.4549  -17.1562 C   0  0  0  0  0  0  0  0  0  0  0  0
   -1.0101  -52.5925  -17.8531 C   0  0  0  0  0  0  0  0  0  0  0  0
   -2.1774  -53.2108  -17.5476 N   0  0  0  0  0  0  0  0  0  0  0  0
   -3.0277  -52.7929  -16.6179 C   0  0  0  0  0  0  0  0  0  0  0  0
   -2.6912  -51.6605  -15.9241 N   0  0  0  0  0  0  0  0  0  0  0  0
   -1.5575  -50.9961  -16.1665 C   0  0  0  0  0  0  0  0  0  0  0  0
   -1.2290  -49.8490  -15.4866 C   0  0  0  0  0  0  0  0  0  0  0  0
   -0.0496  -49.1129  -15.7381 C   0  0  0  0  0  0  0  0  0  0  0  0
    2.7191  -49.0335  -18.2106 C   0  0  0  0  0  0  0  0  0  0  0  0
    1.9847  -48.8727  -17.0062 O   0  0  0  0  0  0  0  0  0  0  0  0
    0.2807  -48.0139  -15.0956 O   0  0  0  0  0  0  0  0  0  0  0  0
   -0.2160  -46.8281  -14.7277 C   0  0  0  0  0  0  0  0  0  0  0  0
 30 31  1  0  0  0
 31 20  1  0  0  0
 20 21  2  0  0  0
 21 22  1  0  0  0
 22 23  2  0  0  0
 23 19  1  0  0  0
 19  1  1  0  0  0
  1  2  2  0  0  0
  2  3  1  0  0  0
  3  4  2  0  0  0
  4  7  1  0  0  0
  7  8  1  0  0  0
  8  9  2  0  0  0
  8 11  1  0  0  0
 11 12  2  0  0  0
 12 13  1  0  0  0
 12 14  1  0  0  0
 14 15  2  0  0  0
 15 16  1  0  0  0
 16 17  2  0  0  0
 17 18  1  0  0  0
  4  5  1  0  0  0
  5  6  2  0  0  0
 23 24  1  0  0  0
 24 25  2  0  0  0
 25 26  1  0  0  0
 26 27  2  0  0  0
 27 28  1  0  0  0
 28 29  2  0  0  0
 29 32  1  0  0  0
 32 33  1  0  0  0
 29 20  1  0  0  0
 27 22  1  0  0  0
  6  1  1  0  0  0
 17 11  1  0  0  0
  7 10  1  0  0  0
M  END
> <minimizedAffinity>
-8.00905

> <CNNscore>
0.3099842072

> <CNNaffinity>
6.6375389099

> <CNN_VS>
2.0575323105

> <CNNaffinity_variance>
0.3310582042

$$$$
[H]c1nc(Oc2c([H])c([H])c(N([H])C(=O)c3c(Cl)c([H])c([H])c([H])c3Cl)c([H])c2[H])c2c([H])c(OC([H])([H])[H])c(OC([H])([H])[H])c([H])c2n1


 33 36  0  0  0  0  0  0  0  0999 V2000
    1.5228  -52.0571  -25.0335 C   0  0  0  0  0  0  0  0  0  0  0  0
    2.7178  -52.6410  -24.7049 C   0  0  0  0  0  0  0  0  0  0  0  0
    3.8662  -51.8803  -24.7527 C   0  0  0  0  0  0  0  0  0  0  0  0
    3.9429  -50.5485  -25.1064 C   0  0  0  0  0  0  0  0  0  0  0  0
    2.6604  -49.9889  -25.4386 C   0  0  0  0  0  0  0  0  0  0  0  0
    1.5280  -50.7174  -25.3991 C   0  0  0  0  0  0  0  0  0  0  0  0
    5.0010  -49.7172  -25.1764 N   0  0  0  0  0  0  0  0  0  0  0  0
    6.0605  -48.8851  -25.2464 C   0  0  0  0  0  0  0  0  0  0  0  0
    7.2525  -49.1868  -25.5432 O   0  0  0  0  0  0  0  0  0  0  0  0
    5.7860  -50.7294  -25.6549 H   0  0  0  0  0  0  0  0  0  0  0  0
    5.7759  -47.4420  -24.9310 C   0  0  0  0  0  0  0  0  0  0  0  0
    5.4152  -46.6261  -25.9864 C   0  0  0  0  0  0  0  0  0  0  0  0
    5.2421  -47.2675  -27.6046 Cl  0  0  0  0  0  0  0  0  0  0  0  0
    5.2000  -45.2929  -25.6793 C   0  0  0  0  0  0  0  0  0  0  0  0
    5.3421  -44.8449  -24.3976 C   0  0  0  0  0  0  0  0  0  0  0  0
    5.7008  -45.6619  -23.3316 C   0  0  0  0  0  0  0  0  0  0  0  0
    5.9191  -47.0025  -23.6423 C   0  0  0  0  0  0  0  0  0  0  0  0
    6.3359  -48.1035  -22.3402 Cl  0  0  0  0  0  0  0  0  0  0  0  0
    0.3290  -52.7205  -25.0224 O   0  0  0  0  0  0  0  0  0  0  0  0
    0.2126  -51.6556  -20.9663 C   0  0  0  0  0  0  0  0  0  0  0  0
    0.2378  -52.0286  -22.2837 C   0  0  0  0  0  0  0  0  0  0  0  0
   -0.2802  -53.2042  -22.7819 C   0  0  0  0  0  0  0  0  0  0  0  0
   -0.2495  -53.5316  -24.1163 C   0  0  0  0  0  0  0  0  0  0  0  0
   -0.8100  -54.7058  -24.4975 N   0  0  0  0  0  0  0  0  0  0  0  0
   -1.3888  -55.5658  -23.6684 C   0  0  0  0  0  0  0  0  0  0  0  0
   -1.4129  -55.2356  -22.3389 N   0  0  0  0  0  0  0  0  0  0  0  0
   -0.8803  -54.0970  -21.8858 C   0  0  0  0  0  0  0  0  0  0  0  0
   -0.9224  -53.7548  -20.5564 C   0  0  0  0  0  0  0  0  0  0  0  0
   -0.3892  -52.5474  -20.0523 C   0  0  0  0  0  0  0  0  0  0  0  0
    1.6222  -49.6602  -21.2565 C   0  0  0  0  0  0  0  0  0  0  0  0
    0.7340  -50.4619  -20.4923 O   0  0  0  0  0  0  0  0  0  0  0  0
   -0.4199  -52.2050  -18.7829 O   0  0  0  0  0  0  0  0  0  0  0  0
   -0.9528  -52.5731  -17.6130 C   0  0  0  0  0  0  0  0  0  0  0  0
 30 31  1  0  0  0
 31 20  1  0  0  0
 20 21  2  0  0  0
 21 22  1  0  0  0
 22 23  2  0  0  0
 23 19  1  0  0  0
 19  1  1  0  0  0
  1  2  2  0  0  0
  2  3  1  0  0  0
  3  4  2  0  0  0
  4  7  1  0  0  0
  7  8  1  0  0  0
  8  9  2  0  0  0
  8 11  1  0  0  0
 11 12  2  0  0  0
 12 13  1  0  0  0
 12 14  1  0  0  0
 14 15  2  0  0  0
 15 16  1  0  0  0
 16 17  2  0  0  0
 17 18  1  0  0  0
  4  5  1  0  0  0
  5  6  2  0  0  0
 23 24  1  0  0  0
 24 25  2  0  0  0
 25 26  1  0  0  0
 26 27  2  0  0  0
 27 28  1  0  0  0
 28 29  2  0  0  0
 29 32  1  0  0  0
 32 33  1  0  0  0
 29 20  1  0  0  0
 27 22  1  0  0  0
  6  1  1  0  0  0
 17 11  1  0  0  0
  7 10  1  0  0  0
M  END
> <minimizedAffinity>
-7.07596

> <CNNscore>
0.3088596463

> <CNNaffinity>
6.6147222519

> <CNN_VS>
2.0430207253

> <CNNaffinity_variance>
0.2202042043

$$$$
[H]OC(=O)C([H])([H])[C@@]([H])(C(=O)C([H])([H])SC([H])([H])c1c([H])c([H])c([H])c([H])c1[H])N([H])C(=O)[C@@]([H])(N([H])C(=O)N([H])c1c([H])c([H])c(F)c([H])c1[H])C([H])([H])c1c([H])c([H])c(OC([H])([H])[H])c([H])c1C([H])([H])[H]


 45 47  0  0  0  0  0  0  0  0999 V2000
    0.5886  -52.4514  -20.1905 C   0  0  0  0  0  0  0  0  0  0  0  0
   -0.2085  -53.0851  -19.1866 N   0  0  0  0  0  0  0  0  0  0  0  0
   -0.7431  -52.3376  -18.0687 C   0  0  0  0  0  0  0  0  0  0  0  0
   -0.5046  -51.0778  -18.0179 O   0  0  0  0  0  0  0  0  0  0  0  0
   -1.4974  -52.9585  -17.0749 N   0  0  0  0  0  0  0  0  0  0  0  0
   -0.4629  -54.0717  -19.2427 H   0  0  0  0  0  0  0  0  0  0  0  0
   -1.6261  -54.0020  -17.1159 H   0  0  0  0  0  0  0  0  0  0  0  0
   -2.0942  -52.2681  -16.0140 C   0  0  0  0  0  0  0  0  0  0  0  0
   -1.3265  -51.7844  -14.9591 C   0  0  0  0  0  0  0  0  0  0  0  0
   -1.9383  -51.1429  -13.9025 C   0  0  0  0  0  0  0  0  0  0  0  0
   -3.3002  -50.9541  -13.8335 C   0  0  0  0  0  0  0  0  0  0  0  0
   -3.8699  -50.3173  -12.7837 F   0  0  0  0  0  0  0  0  0  0  0  0
   -4.0483  -51.4365  -14.8783 C   0  0  0  0  0  0  0  0  0  0  0  0
   -3.4466  -52.0834  -15.9506 C   0  0  0  0  0  0  0  0  0  0  0  0
    0.4388  -53.1956  -21.4794 C   0  0  0  0  0  0  0  0  0  0  0  0
    0.1192  -54.4360  -21.4529 O   0  0  0  0  0  0  0  0  0  0  0  0
    0.6350  -52.6070  -22.7286 N   0  0  0  0  0  0  0  0  0  0  0  0
    0.9153  -51.6209  -22.8102 H   0  0  0  0  0  0  0  0  0  0  0  0
    0.4457  -53.4143  -23.9662 C   0  0  0  0  0  0  0  0  0  0  0  0
    1.5816  -53.1234  -24.8755 C   0  0  0  0  0  0  0  0  0  0  0  0
    1.7783  -53.9565  -25.7872 O   0  0  0  0  0  0  0  0  0  0  0  0
    2.4979  -51.9922  -24.8440 C   0  0  0  0  0  0  0  0  0  0  0  0
    4.2191  -52.2944  -25.1285 S   0  0  0  0  0  0  0  0  0  0  0  0
    5.2631  -52.3265  -23.6814 C   0  0  0  0  0  0  0  0  0  0  0  0
    5.4661  -51.0282  -23.0171 C   0  0  0  0  0  0  0  0  0  0  0  0
    5.4546  -49.8005  -23.5867 C   0  0  0  0  0  0  0  0  0  0  0  0
    5.6543  -48.6337  -22.8623 C   0  0  0  0  0  0  0  0  0  0  0  0
    5.8721  -48.7105  -21.5119 C   0  0  0  0  0  0  0  0  0  0  0  0
    5.8894  -49.9444  -20.8933 C   0  0  0  0  0  0  0  0  0  0  0  0
    5.6917  -51.0800  -21.6382 C   0  0  0  0  0  0  0  0  0  0  0  0
   -0.8978  -53.1175  -24.4978 C   0  0  0  0  0  0  0  0  0  0  0  0
   -0.9407  -52.4941  -25.8282 C   0  0  0  0  0  0  0  0  0  0  0  0
   -0.6835  -51.1664  -25.9891 O   0  0  0  0  0  0  0  0  0  0  0  0
   -1.2127  -53.1910  -26.8265 O   0  0  0  0  0  0  0  0  0  0  0  0
    0.2364  -50.8624  -26.2427 H   0  0  0  0  0  0  0  0  0  0  0  0
    1.9984  -52.1296  -19.9369 C   0  0  0  0  0  0  0  0  0  0  0  0
    2.8523  -47.9631  -19.7866 C   0  0  0  0  0  0  0  0  0  0  0  0
    2.3224  -48.5537  -20.9176 C   0  0  0  0  0  0  0  0  0  0  0  0
    2.0829  -49.8857  -20.9383 C   0  0  0  0  0  0  0  0  0  0  0  0
    2.3625  -50.7109  -19.8222 C   0  0  0  0  0  0  0  0  0  0  0  0
    2.8788  -50.1201  -18.7358 C   0  0  0  0  0  0  0  0  0  0  0  0
    3.2827  -50.8705  -17.5109 C   0  0  0  0  0  0  0  0  0  0  0  0
    3.1249  -48.7459  -18.7107 C   0  0  0  0  0  0  0  0  0  0  0  0
    3.8256  -46.0370  -18.7408 C   0  0  0  0  0  0  0  0  0  0  0  0
    3.0808  -46.5964  -19.8079 O   0  0  0  0  0  0  0  0  0  0  0  0
 44 45  1  0  0  0
 45 37  1  0  0  0
 37 38  2  0  0  0
 38 39  1  0  0  0
 39 40  2  0  0  0
 40 36  1  0  0  0
 36  1  1  0  0  0
  1  2  1  0  0  0
  2  3  1  0  0  0
  3  4  2  0  0  0
  3  5  1  0  0  0
  5  8  1  0  0  0
  8  9  2  0  0  0
  9 10  1  0  0  0
 10 11  2  0  0  0
 11 12  1  0  0  0
 11 13  1  0  0  0
 13 14  2  0  0  0
  1 15  1  0  0  0
 15 16  2  0  0  0
 15 17  1  0  0  0
 17 19  1  0  0  0
 19 31  1  0  0  0
 31 32  1  0  0  0
 32 33  1  0  0  0
 32 34  2  0  0  0
 19 20  1  0  0  0
 20 21  2  0  0  0
 20 22  1  0  0  0
 22 23  1  0  0  0
 23 24  1  0  0  0
 24 25  1  0  0  0
 25 26  2  0  0  0
 26 27  1  0  0  0
 27 28  2  0  0  0
 28 29  1  0  0  0
 29 30  2  0  0  0
 40 41  1  0  0  0
 41 42  1  0  0  0
 41 43  2  0  0  0
 43 37  1  0  0  0
 14  8  1  0  0  0
 30 25  1  0  0  0
  2  6  1  0  0  0
  5  7  1  0  0  0
 17 18  1  0  0  0
 33 35  1  0  0  0
M  END
> <minimizedAffinity>
-6.42013

> <CNNscore>
0.2396221012

> <CNNaffinity>
6.6095609665

> <CNN_VS>
1.5837968588

> <CNNaffinity_variance>
0.3478275537

$$$$
[H]OC(=O)C([H])([H])[C@@]([H])(C(=O)C([H])([H])SC([H])([H])c1c([H])c([H])c([H])c([H])c1[H])N([H])C(=O)[C@@]([H])(N([H])C(=O)N([H])c1c([H])c([H])c(F)c([H])c1[H])C([H])([H])c1c([H])c([H])c(OC([H])([H])[H])c([H])c1C([H])([H])[H]


 45 47  0  0  0  0  0  0  0  0999 V2000
    0.5481  -51.3745  -19.6461 C   0  0  0  0  0  0  0  0  0  0  0  0
   -0.3192  -51.4362  -20.7812 N   0  0  0  0  0  0  0  0  0  0  0  0
    0.1244  -52.0045  -22.0360 C   0  0  0  0  0  0  0  0  0  0  0  0
    1.3148  -52.4798  -22.0940 O   0  0  0  0  0  0  0  0  0  0  0  0
   -0.7102  -52.0411  -23.1515 N   0  0  0  0  0  0  0  0  0  0  0  0
   -1.2892  -51.1225  -20.7370 H   0  0  0  0  0  0  0  0  0  0  0  0
   -1.6594  -51.5915  -23.0873 H   0  0  0  0  0  0  0  0  0  0  0  0
   -0.3531  -52.6423  -24.3636 C   0  0  0  0  0  0  0  0  0  0  0  0
   -0.0009  -51.8678  -25.4648 C   0  0  0  0  0  0  0  0  0  0  0  0
    0.3077  -52.4779  -26.6625 C   0  0  0  0  0  0  0  0  0  0  0  0
    0.2826  -53.8440  -26.8309 C   0  0  0  0  0  0  0  0  0  0  0  0
    0.5942  -54.4123  -28.0192 F   0  0  0  0  0  0  0  0  0  0  0  0
   -0.0676  -54.5984  -25.7390 C   0  0  0  0  0  0  0  0  0  0  0  0
   -0.3796  -53.9989  -24.5252 C   0  0  0  0  0  0  0  0  0  0  0  0
   -0.1999  -51.8230  -18.4309 C   0  0  0  0  0  0  0  0  0  0  0  0
   -0.9317  -52.8726  -18.4979 O   0  0  0  0  0  0  0  0  0  0  0  0
   -0.1485  -51.1497  -17.2105 N   0  0  0  0  0  0  0  0  0  0  0  0
    0.4038  -50.2887  -17.1045 H   0  0  0  0  0  0  0  0  0  0  0  0
   -0.9085  -51.6748  -16.0418 C   0  0  0  0  0  0  0  0  0  0  0  0
   -1.9348  -50.6667  -15.6782 C   0  0  0  0  0  0  0  0  0  0  0  0
   -1.5383  -49.4824  -15.6144 O   0  0  0  0  0  0  0  0  0  0  0  0
   -3.3456  -50.8779  -15.3860 C   0  0  0  0  0  0  0  0  0  0  0  0
   -3.9466  -52.5408  -15.2931 S   0  0  0  0  0  0  0  0  0  0  0  0
   -4.5053  -53.0882  -13.6889 C   0  0  0  0  0  0  0  0  0  0  0  0
   -5.3849  -54.2691  -13.6929 C   0  0  0  0  0  0  0  0  0  0  0  0
   -5.4929  -55.2192  -12.7350 C   0  0  0  0  0  0  0  0  0  0  0  0
   -6.3630  -56.2955  -12.8384 C   0  0  0  0  0  0  0  0  0  0  0  0
   -7.1544  -56.4150  -13.9504 C   0  0  0  0  0  0  0  0  0  0  0  0
   -7.0749  -55.4652  -14.9489 C   0  0  0  0  0  0  0  0  0  0  0  0
   -6.2020  -54.4143  -14.8181 C   0  0  0  0  0  0  0  0  0  0  0  0
    0.0642  -52.0140  -14.9860 C   0  0  0  0  0  0  0  0  0  0  0  0
    1.2928  -51.2077  -14.9593 C   0  0  0  0  0  0  0  0  0  0  0  0
    1.2516  -49.8602  -15.1526 O   0  0  0  0  0  0  0  0  0  0  0  0
    2.3902  -51.7639  -14.7526 O   0  0  0  0  0  0  0  0  0  0  0  0
    1.2258  -49.2425  -14.3647 H   0  0  0  0  0  0  0  0  0  0  0  0
    1.3248  -50.1617  -19.3603 C   0  0  0  0  0  0  0  0  0  0  0  0
    3.3828  -48.1821  -22.5157 C   0  0  0  0  0  0  0  0  0  0  0  0
    2.1196  -47.7900  -22.1166 C   0  0  0  0  0  0  0  0  0  0  0  0
    1.4851  -48.4557  -21.1235 C   0  0  0  0  0  0  0  0  0  0  0  0
    2.0800  -49.5607  -20.4679 C   0  0  0  0  0  0  0  0  0  0  0  0
    3.3042  -49.9277  -20.8712 C   0  0  0  0  0  0  0  0  0  0  0  0
    4.0273  -51.1099  -20.3182 C   0  0  0  0  0  0  0  0  0  0  0  0
    3.9622  -49.2415  -21.8939 C   0  0  0  0  0  0  0  0  0  0  0  0
    3.2128  -46.5308  -24.2464 C   0  0  0  0  0  0  0  0  0  0  0  0
    3.9967  -47.4722  -23.5355 O   0  0  0  0  0  0  0  0  0  0  0  0
 44 45  1  0  0  0
 45 37  1  0  0  0
 37 38  2  0  0  0
 38 39  1  0  0  0
 39 40  2  0  0  0
 40 36  1  0  0  0
 36  1  1  0  0  0
  1  2  1  0  0  0
  2  3  1  0  0  0
  3  4  2  0  0  0
  3  5  1  0  0  0
  5  8  1  0  0  0
  8  9  2  0  0  0
  9 10  1  0  0  0
 10 11  2  0  0  0
 11 12  1  0  0  0
 11 13  1  0  0  0
 13 14  2  0  0  0
  1 15  1  0  0  0
 15 16  2  0  0  0
 15 17  1  0  0  0
 17 19  1  0  0  0
 19 31  1  0  0  0
 31 32  1  0  0  0
 32 33  1  0  0  0
 32 34  2  0  0  0
 19 20  1  0  0  0
 20 21  2  0  0  0
 20 22  1  0  0  0
 22 23  1  0  0  0
 23 24  1  0  0  0
 24 25  1  0  0  0
 25 26  2  0  0  0
 26 27  1  0  0  0
 27 28  2  0  0  0
 28 29  1  0  0  0
 29 30  2  0  0  0
 40 41  1  0  0  0
 41 42  1  0  0  0
 41 43  2  0  0  0
 43 37  1  0  0  0
 14  8  1  0  0  0
 30 25  1  0  0  0
  2  6  1  0  0  0
  5  7  1  0  0  0
 17 18  1  0  0  0
 33 35  1  0  0  0
M  END
> <minimizedAffinity>
-6.91166

> <CNNscore>
0.1895691454

> <CNNaffinity>
6.2915725708

> <CNN_VS>
1.1926879883

> <CNNaffinity_variance>
0.1504831165

$$$$
[H]OC(=O)C([H])([H])[C@@]([H])(C(=O)C([H])([H])SC([H])([H])c1c([H])c([H])c([H])c([H])c1[H])N([H])C(=O)[C@@]([H])(N([H])C(=O)N([H])c1c([H])c([H])c(F)c([H])c1[H])C([H])([H])c1c([H])c([H])c(OC([H])([H])[H])c([H])c1C([H])([H])[H]


 45 47  0  0  0  0  0  0  0  0999 V2000
    4.5206  -50.7214  -24.6352 C   0  0  0  0  0  0  0  0  0  0  0  0
    4.0413  -51.4845  -25.7455 N   0  0  0  0  0  0  0  0  0  0  0  0
    2.6246  -51.6244  -26.0058 C   0  0  0  0  0  0  0  0  0  0  0  0
    1.8065  -51.0182  -25.2249 O   0  0  0  0  0  0  0  0  0  0  0  0
    2.1546  -52.3898  -27.0713 N   0  0  0  0  0  0  0  0  0  0  0  0
    4.6761  -51.9209  -26.4148 H   0  0  0  0  0  0  0  0  0  0  0  0
    2.8491  -52.9202  -27.6575 H   0  0  0  0  0  0  0  0  0  0  0  0
    0.8001  -52.4982  -27.4058 C   0  0  0  0  0  0  0  0  0  0  0  0
    0.4101  -52.7627  -28.7151 C   0  0  0  0  0  0  0  0  0  0  0  0
   -0.9305  -52.8246  -29.0327 C   0  0  0  0  0  0  0  0  0  0  0  0
   -1.9262  -52.6313  -28.1019 C   0  0  0  0  0  0  0  0  0  0  0  0
   -3.2336  -52.7019  -28.4453 F   0  0  0  0  0  0  0  0  0  0  0  0
   -1.5307  -52.3695  -26.8140 C   0  0  0  0  0  0  0  0  0  0  0  0
   -0.1841  -52.3056  -26.4778 C   0  0  0  0  0  0  0  0  0  0  0  0
    5.3944  -49.6166  -25.1386 C   0  0  0  0  0  0  0  0  0  0  0  0
    6.5278  -49.4097  -24.5781 O   0  0  0  0  0  0  0  0  0  0  0  0
    5.0373  -48.7825  -26.1979 N   0  0  0  0  0  0  0  0  0  0  0  0
    4.1298  -48.8871  -26.6704 H   0  0  0  0  0  0  0  0  0  0  0  0
    5.9751  -47.7176  -26.6513 C   0  0  0  0  0  0  0  0  0  0  0  0
    5.6557  -46.4806  -25.8965 C   0  0  0  0  0  0  0  0  0  0  0  0
    4.5221  -45.9937  -26.1007 O   0  0  0  0  0  0  0  0  0  0  0  0
    6.4922  -45.7596  -24.9475 C   0  0  0  0  0  0  0  0  0  0  0  0
    5.7756  -45.2505  -23.4105 S   0  0  0  0  0  0  0  0  0  0  0  0
    5.7033  -46.4881  -22.1267 C   0  0  0  0  0  0  0  0  0  0  0  0
    4.3727  -47.0682  -21.8793 C   0  0  0  0  0  0  0  0  0  0  0  0
    3.5422  -47.6396  -22.7824 C   0  0  0  0  0  0  0  0  0  0  0  0
    2.3032  -48.1621  -22.4391 C   0  0  0  0  0  0  0  0  0  0  0  0
    1.8889  -48.1066  -21.1344 C   0  0  0  0  0  0  0  0  0  0  0  0
    2.7083  -47.5332  -20.1828 C   0  0  0  0  0  0  0  0  0  0  0  0
    3.9266  -47.0225  -20.5550 C   0  0  0  0  0  0  0  0  0  0  0  0
    5.8728  -47.6211  -28.1197 C   0  0  0  0  0  0  0  0  0  0  0  0
    4.7313  -48.3150  -28.7327 C   0  0  0  0  0  0  0  0  0  0  0  0
    4.8626  -49.5752  -29.2320 O   0  0  0  0  0  0  0  0  0  0  0  0
    3.6238  -47.7439  -28.7937 O   0  0  0  0  0  0  0  0  0  0  0  0
    4.6131  -50.3648  -28.6688 H   0  0  0  0  0  0  0  0  0  0  0  0
    5.1354  -51.3845  -23.4785 C   0  0  0  0  0  0  0  0  0  0  0  0
    3.0447  -51.2075  -19.7760 C   0  0  0  0  0  0  0  0  0  0  0  0
    2.4693  -51.7525  -20.9075 C   0  0  0  0  0  0  0  0  0  0  0  0
    3.1550  -51.7734  -22.0743 C   0  0  0  0  0  0  0  0  0  0  0  0
    4.4646  -51.2455  -22.1789 C   0  0  0  0  0  0  0  0  0  0  0  0
    5.0045  -50.7185  -21.0712 C   0  0  0  0  0  0  0  0  0  0  0  0
    6.3477  -50.0692  -21.0454 C   0  0  0  0  0  0  0  0  0  0  0  0
    4.3004  -50.6976  -19.8656 C   0  0  0  0  0  0  0  0  0  0  0  0
    2.9223  -50.6812  -17.4396 C   0  0  0  0  0  0  0  0  0  0  0  0
    2.3079  -51.2076  -18.6021 O   0  0  0  0  0  0  0  0  0  0  0  0
 44 45  1  0  0  0
 45 37  1  0  0  0
 37 38  2  0  0  0
 38 39  1  0  0  0
 39 40  2  0  0  0
 40 36  1  0  0  0
 36  1  1  0  0  0
  1  2  1  0  0  0
  2  3  1  0  0  0
  3  4  2  0  0  0
  3  5  1  0  0  0
  5  8  1  0  0  0
  8  9  2  0  0  0
  9 10  1  0  0  0
 10 11  2  0  0  0
 11 12  1  0  0  0
 11 13  1  0  0  0
 13 14  2  0  0  0
  1 15  1  0  0  0
 15 16  2  0  0  0
 15 17  1  0  0  0
 17 19  1  0  0  0
 19 31  1  0  0  0
 31 32  1  0  0  0
 32 33  1  0  0  0
 32 34  2  0  0  0
 19 20  1  0  0  0
 20 21  2  0  0  0
 20 22  1  0  0  0
 22 23  1  0  0  0
 23 24  1  0  0  0
 24 25  1  0  0  0
 25 26  2  0  0  0
 26 27  1  0  0  0
 27 28  2  0  0  0
 28 29  1  0  0  0
 29 30  2  0  0  0
 40 41  1  0  0  0
 41 42  1  0  0  0
 41 43  2  0  0  0
 43 37  1  0  0  0
 14  8  1  0  0  0
 30 25  1  0  0  0
  2  6  1  0  0  0
  5  7  1  0  0  0
 17 18  1  0  0  0
 33 35  1  0  0  0
M  END
> <minimizedAffinity>
-6.80670

> <CNNscore>
0.1289000660

> <CNNaffinity>
6.4923300743

> <CNN_VS>
0.8368617892

> <CNNaffinity_variance>
0.2083841860

$$$$
[H]OC(=O)C([H])([H])[C@@]([H])(C(=O)C([H])([H])SC([H])([H])c1c([H])c([H])c([H])c([H])c1[H])N([H])C(=O)[C@@]([H])(N([H])C(=O)N([H])c1c([H])c([H])c(F)c([H])c1[H])C([H])([H])c1c([H])c([H])c(OC([H])([H])[H])c([H])c1C([H])([H])[H]


 45 47  0  0  0  0  0  0  0  0999 V2000
    0.6472  -53.0345  -21.0186 C   0  0  0  0  0  0  0  0  0  0  0  0
    0.0506  -53.5401  -19.8214 N   0  0  0  0  0  0  0  0  0  0  0  0
   -0.4495  -52.6490  -18.7967 C   0  0  0  0  0  0  0  0  0  0  0  0
   -0.3680  -51.3856  -19.0056 O   0  0  0  0  0  0  0  0  0  0  0  0
   -1.0067  -53.1395  -17.6173 N   0  0  0  0  0  0  0  0  0  0  0  0
   -0.0818  -54.5397  -19.6648 H   0  0  0  0  0  0  0  0  0  0  0  0
   -1.0062  -54.1786  -17.4521 H   0  0  0  0  0  0  0  0  0  0  0  0
   -1.5671  -52.3216  -16.6296 C   0  0  0  0  0  0  0  0  0  0  0  0
   -0.7558  -51.6168  -15.7457 C   0  0  0  0  0  0  0  0  0  0  0  0
   -1.3275  -50.8488  -14.7529 C   0  0  0  0  0  0  0  0  0  0  0  0
   -2.6897  -50.7425  -14.5847 C   0  0  0  0  0  0  0  0  0  0  0  0
   -3.2196  -49.9774  -13.6019 F   0  0  0  0  0  0  0  0  0  0  0  0
   -3.4806  -51.4430  -15.4609 C   0  0  0  0  0  0  0  0  0  0  0  0
   -2.9200  -52.2197  -16.4672 C   0  0  0  0  0  0  0  0  0  0  0  0
    1.7492  -52.0897  -20.6576 C   0  0  0  0  0  0  0  0  0  0  0  0
    2.6623  -52.4738  -19.8449 O   0  0  0  0  0  0  0  0  0  0  0  0
    1.8379  -50.7917  -21.1603 N   0  0  0  0  0  0  0  0  0  0  0  0
    1.1210  -50.4216  -21.7980 H   0  0  0  0  0  0  0  0  0  0  0  0
    2.9801  -49.9206  -20.7657 C   0  0  0  0  0  0  0  0  0  0  0  0
    2.4346  -48.7846  -19.9824 C   0  0  0  0  0  0  0  0  0  0  0  0
    1.4431  -48.2058  -20.4782 O   0  0  0  0  0  0  0  0  0  0  0  0
    2.9046  -48.2560  -18.7096 C   0  0  0  0  0  0  0  0  0  0  0  0
    2.1439  -48.8417  -17.2220 S   0  0  0  0  0  0  0  0  0  0  0  0
    3.1649  -48.8317  -15.7582 C   0  0  0  0  0  0  0  0  0  0  0  0
    2.9689  -49.9665  -14.8406 C   0  0  0  0  0  0  0  0  0  0  0  0
    2.1399  -50.0288  -13.7726 C   0  0  0  0  0  0  0  0  0  0  0  0
    2.0288  -51.1570  -12.9719 C   0  0  0  0  0  0  0  0  0  0  0  0
    2.7823  -52.2637  -13.2625 C   0  0  0  0  0  0  0  0  0  0  0  0
    3.6386  -52.2403  -14.3449 C   0  0  0  0  0  0  0  0  0  0  0  0
    3.7279  -51.1081  -15.1154 C   0  0  0  0  0  0  0  0  0  0  0  0
    3.7193  -49.5627  -21.9910 C   0  0  0  0  0  0  0  0  0  0  0  0
    4.6561  -50.5759  -22.4971 C   0  0  0  0  0  0  0  0  0  0  0  0
    4.9196  -51.7058  -21.7838 O   0  0  0  0  0  0  0  0  0  0  0  0
    5.2162  -50.4017  -23.5982 O   0  0  0  0  0  0  0  0  0  0  0  0
    4.4193  -52.5504  -21.9822 H   0  0  0  0  0  0  0  0  0  0  0  0
   -0.1834  -52.4780  -22.0938 C   0  0  0  0  0  0  0  0  0  0  0  0
    0.4445  -54.0580  -25.9951 C   0  0  0  0  0  0  0  0  0  0  0  0
    0.9617  -52.8339  -25.6174 C   0  0  0  0  0  0  0  0  0  0  0  0
    0.7247  -52.3516  -24.3751 C   0  0  0  0  0  0  0  0  0  0  0  0
   -0.0499  -53.0694  -23.4320 C   0  0  0  0  0  0  0  0  0  0  0  0
   -0.5455  -54.2532  -23.8181 C   0  0  0  0  0  0  0  0  0  0  0  0
   -1.4308  -55.0895  -22.9560 C   0  0  0  0  0  0  0  0  0  0  0  0
   -0.3008  -54.7543  -25.0982 C   0  0  0  0  0  0  0  0  0  0  0  0
    1.0478  -53.5534  -28.2606 C   0  0  0  0  0  0  0  0  0  0  0  0
    0.7123  -54.5146  -27.2759 O   0  0  0  0  0  0  0  0  0  0  0  0
 44 45  1  0  0  0
 45 37  1  0  0  0
 37 38  2  0  0  0
 38 39  1  0  0  0
 39 40  2  0  0  0
 40 36  1  0  0  0
 36  1  1  0  0  0
  1  2  1  0  0  0
  2  3  1  0  0  0
  3  4  2  0  0  0
  3  5  1  0  0  0
  5  8  1  0  0  0
  8  9  2  0  0  0
  9 10  1  0  0  0
 10 11  2  0  0  0
 11 12  1  0  0  0
 11 13  1  0  0  0
 13 14  2  0  0  0
  1 15  1  0  0  0
 15 16  2  0  0  0
 15 17  1  0  0  0
 17 19  1  0  0  0
 19 31  1  0  0  0
 31 32  1  0  0  0
 32 33  1  0  0  0
 32 34  2  0  0  0
 19 20  1  0  0  0
 20 21  2  0  0  0
 20 22  1  0  0  0
 22 23  1  0  0  0
 23 24  1  0  0  0
 24 25  1  0  0  0
 25 26  2  0  0  0
 26 27  1  0  0  0
 27 28  2  0  0  0
 28 29  1  0  0  0
 29 30  2  0  0  0
 40 41  1  0  0  0
 41 42  1  0  0  0
 41 43  2  0  0  0
 43 37  1  0  0  0
 14  8  1  0  0  0
 30 25  1  0  0  0
  2  6  1  0  0  0
  5  7  1  0  0  0
 17 18  1  0  0  0
 33 35  1  0  0  0
M  END
> <minimizedAffinity>
-7.44305

> <CNNscore>
0.1281091571

> <CNNaffinity>
6.4104280472

> <CNN_VS>
0.8212345243

> <CNNaffinity_variance>
0.3525373936

$$$$
[H]OC(=O)C([H])([H])[C@@]([H])(C(=O)C([H])([H])SC([H])([H])c1c([H])c([H])c([H])c([H])c1[H])N([H])C(=O)[C@@]([H])(N([H])C(=O)N([H])c1c([H])c([H])c(F)c([H])c1[H])C([H])([H])c1c([H])c([H])c(OC([H])([H])[H])c([H])c1C([H])([H])[H]


 45 47  0  0  0  0  0  0  0  0999 V2000
   -0.0001  -52.1460  -19.3531 C   0  0  0  0  0  0  0  0  0  0  0  0
    0.3013  -53.0358  -20.4312 N   0  0  0  0  0  0  0  0  0  0  0  0
   -0.0901  -52.7295  -21.7903 C   0  0  0  0  0  0  0  0  0  0  0  0
   -0.6934  -51.6179  -22.0069 O   0  0  0  0  0  0  0  0  0  0  0  0
    0.1786  -53.6079  -22.8383 N   0  0  0  0  0  0  0  0  0  0  0  0
    0.8360  -53.8934  -20.2898 H   0  0  0  0  0  0  0  0  0  0  0  0
    0.6231  -54.5359  -22.6185 H   0  0  0  0  0  0  0  0  0  0  0  0
   -0.1159  -53.3257  -24.1770 C   0  0  0  0  0  0  0  0  0  0  0  0
    0.0712  -54.2884  -25.1642 C   0  0  0  0  0  0  0  0  0  0  0  0
   -0.1855  -53.9778  -26.4832 C   0  0  0  0  0  0  0  0  0  0  0  0
   -0.6244  -52.7361  -26.8842 C   0  0  0  0  0  0  0  0  0  0  0  0
   -0.8705  -52.4639  -28.1871 F   0  0  0  0  0  0  0  0  0  0  0  0
   -0.8041  -51.7936  -25.9028 C   0  0  0  0  0  0  0  0  0  0  0  0
   -0.5515  -52.0915  -24.5695 C   0  0  0  0  0  0  0  0  0  0  0  0
    0.8969  -50.9519  -19.4360 C   0  0  0  0  0  0  0  0  0  0  0  0
    0.3854  -49.7788  -19.3731 O   0  0  0  0  0  0  0  0  0  0  0  0
    2.2806  -51.0447  -19.5849 N   0  0  0  0  0  0  0  0  0  0  0  0
    2.7435  -51.9595  -19.6644 H   0  0  0  0  0  0  0  0  0  0  0  0
    3.1049  -49.8050  -19.6388 C   0  0  0  0  0  0  0  0  0  0  0  0
    3.6351  -49.6726  -21.0184 C   0  0  0  0  0  0  0  0  0  0  0  0
    2.8436  -49.9739  -21.9387 O   0  0  0  0  0  0  0  0  0  0  0  0
    4.9588  -49.2366  -21.4401 C   0  0  0  0  0  0  0  0  0  0  0  0
    6.1717  -50.4704  -21.8162 S   0  0  0  0  0  0  0  0  0  0  0  0
    6.4083  -50.8412  -23.5459 C   0  0  0  0  0  0  0  0  0  0  0  0
    5.1856  -51.1737  -24.2960 C   0  0  0  0  0  0  0  0  0  0  0  0
    4.5741  -52.3780  -24.3827 C   0  0  0  0  0  0  0  0  0  0  0  0
    3.4156  -52.5816  -25.1192 C   0  0  0  0  0  0  0  0  0  0  0  0
    2.8534  -51.5287  -25.7917 C   0  0  0  0  0  0  0  0  0  0  0  0
    3.4462  -50.2837  -25.7266 C   0  0  0  0  0  0  0  0  0  0  0  0
    4.5933  -50.1157  -24.9922 C   0  0  0  0  0  0  0  0  0  0  0  0
    4.1137  -49.8866  -18.5658 C   0  0  0  0  0  0  0  0  0  0  0  0
    3.6027  -50.2021  -17.2242 C   0  0  0  0  0  0  0  0  0  0  0  0
    3.2124  -49.2139  -16.3722 O   0  0  0  0  0  0  0  0  0  0  0  0
    3.5210  -51.3927  -16.8604 O   0  0  0  0  0  0  0  0  0  0  0  0
    2.2466  -48.9549  -16.3158 H   0  0  0  0  0  0  0  0  0  0  0  0
   -0.0819  -52.6400  -17.9729 C   0  0  0  0  0  0  0  0  0  0  0  0
   -3.5622  -51.7628  -15.6862 C   0  0  0  0  0  0  0  0  0  0  0  0
   -3.5512  -52.7706  -16.6311 C   0  0  0  0  0  0  0  0  0  0  0  0
   -2.4332  -53.0086  -17.3559 C   0  0  0  0  0  0  0  0  0  0  0  0
   -1.2531  -52.2468  -17.1779 C   0  0  0  0  0  0  0  0  0  0  0  0
   -1.2843  -51.2719  -16.2589 C   0  0  0  0  0  0  0  0  0  0  0  0
   -0.1398  -50.3481  -16.0073 C   0  0  0  0  0  0  0  0  0  0  0  0
   -2.4356  -51.0254  -15.5081 C   0  0  0  0  0  0  0  0  0  0  0  0
   -4.6518  -50.7289  -13.8168 C   0  0  0  0  0  0  0  0  0  0  0  0
   -4.7275  -51.5537  -14.9657 O   0  0  0  0  0  0  0  0  0  0  0  0
 44 45  1  0  0  0
 45 37  1  0  0  0
 37 38  2  0  0  0
 38 39  1  0  0  0
 39 40  2  0  0  0
 40 36  1  0  0  0
 36  1  1  0  0  0
  1  2  1  0  0  0
  2  3  1  0  0  0
  3  4  2  0  0  0
  3  5  1  0  0  0
  5  8  1  0  0  0
  8  9  2  0  0  0
  9 10  1  0  0  0
 10 11  2  0  0  0
 11 12  1  0  0  0
 11 13  1  0  0  0
 13 14  2  0  0  0
  1 15  1  0  0  0
 15 16  2  0  0  0
 15 17  1  0  0  0
 17 19  1  0  0  0
 19 31  1  0  0  0
 31 32  1  0  0  0
 32 33  1  0  0  0
 32 34  2  0  0  0
 19 20  1  0  0  0
 20 21  2  0  0  0
 20 22  1  0  0  0
 22 23  1  0  0  0
 23 24  1  0  0  0
 24 25  1  0  0  0
 25 26  2  0  0  0
 26 27  1  0  0  0
 27 28  2  0  0  0
 28 29  1  0  0  0
 29 30  2  0  0  0
 40 41  1  0  0  0
 41 42  1  0  0  0
 41 43  2  0  0  0
 43 37  1  0  0  0
 14  8  1  0  0  0
 30 25  1  0  0  0
  2  6  1  0  0  0
  5  7  1  0  0  0
 17 18  1  0  0  0
 33 35  1  0  0  0
M  END
> <minimizedAffinity>
-7.18050

> <CNNscore>
0.1129871085

> <CNNaffinity>
6.5235023499

> <CNN_VS>
0.7370716929

> <CNNaffinity_variance>
0.2652949691

$$$$
[H]OC(=O)C([H])([H])[C@@]([H])(C(=O)C([H])([H])SC([H])([H])c1c([H])c([H])c([H])c([H])c1[H])N([H])C(=O)[C@@]([H])(N([H])C(=O)N([H])c1c([H])c([H])c(F)c([H])c1[H])C([H])([H])c1c([H])c([H])c(OC([H])([H])[H])c([H])c1C([H])([H])[H]


 45 47  0  0  0  0  0  0  0  0999 V2000
    1.1757  -52.5260  -20.8941 C   0  0  0  0  0  0  0  0  0  0  0  0
    0.4838  -53.2073  -19.8444 N   0  0  0  0  0  0  0  0  0  0  0  0
   -0.1588  -52.4791  -18.7715 C   0  0  0  0  0  0  0  0  0  0  0  0
   -0.1146  -51.1971  -18.8033 O   0  0  0  0  0  0  0  0  0  0  0  0
   -0.8103  -53.1419  -17.7331 N   0  0  0  0  0  0  0  0  0  0  0  0
    0.3823  -54.2226  -19.8351 H   0  0  0  0  0  0  0  0  0  0  0  0
   -0.7789  -54.1933  -17.7063 H   0  0  0  0  0  0  0  0  0  0  0  0
   -1.5057  -52.4833  -16.7128 C   0  0  0  0  0  0  0  0  0  0  0  0
   -0.8366  -52.0055  -15.5902 C   0  0  0  0  0  0  0  0  0  0  0  0
   -1.5454  -51.3959  -14.5763 C   0  0  0  0  0  0  0  0  0  0  0  0
   -2.9120  -51.2340  -14.6159 C   0  0  0  0  0  0  0  0  0  0  0  0
   -3.5782  -50.6281  -13.6054 F   0  0  0  0  0  0  0  0  0  0  0  0
   -3.5623  -51.7102  -15.7269 C   0  0  0  0  0  0  0  0  0  0  0  0
   -2.8621  -52.3251  -16.7574 C   0  0  0  0  0  0  0  0  0  0  0  0
    2.3462  -51.7946  -20.3175 C   0  0  0  0  0  0  0  0  0  0  0  0
    3.3494  -52.4624  -19.8825 O   0  0  0  0  0  0  0  0  0  0  0  0
    2.4063  -50.4045  -20.2209 N   0  0  0  0  0  0  0  0  0  0  0  0
    1.6208  -49.8185  -20.5327 H   0  0  0  0  0  0  0  0  0  0  0  0
    3.6189  -49.7529  -19.6516 C   0  0  0  0  0  0  0  0  0  0  0  0
    3.3256  -49.4041  -18.2395 C   0  0  0  0  0  0  0  0  0  0  0  0
    3.3639  -48.1860  -17.9586 O   0  0  0  0  0  0  0  0  0  0  0  0
    2.9983  -50.2973  -17.1371 C   0  0  0  0  0  0  0  0  0  0  0  0
    2.0346  -49.6608  -15.7950 S   0  0  0  0  0  0  0  0  0  0  0  0
    0.6251  -48.6614  -16.2417 C   0  0  0  0  0  0  0  0  0  0  0  0
   -0.2534  -48.2698  -15.1267 C   0  0  0  0  0  0  0  0  0  0  0  0
    0.0598  -48.2152  -13.8111 C   0  0  0  0  0  0  0  0  0  0  0  0
   -0.8494  -47.8259  -12.8374 C   0  0  0  0  0  0  0  0  0  0  0  0
   -2.1216  -47.4772  -13.2073 C   0  0  0  0  0  0  0  0  0  0  0  0
   -2.4794  -47.5181  -14.5399 C   0  0  0  0  0  0  0  0  0  0  0  0
   -1.5581  -47.9106  -15.4784 C   0  0  0  0  0  0  0  0  0  0  0  0
    3.9815  -48.6261  -20.5318 C   0  0  0  0  0  0  0  0  0  0  0  0
    4.8181  -48.9598  -21.6933 C   0  0  0  0  0  0  0  0  0  0  0  0
    4.7939  -50.2069  -22.2399 O   0  0  0  0  0  0  0  0  0  0  0  0
    5.5593  -48.0874  -22.1895 O   0  0  0  0  0  0  0  0  0  0  0  0
    4.2064  -50.3959  -23.0286 H   0  0  0  0  0  0  0  0  0  0  0  0
    0.4478  -51.6753  -21.8440 C   0  0  0  0  0  0  0  0  0  0  0  0
   -0.2208  -53.1845  -25.7665 C   0  0  0  0  0  0  0  0  0  0  0  0
   -0.8041  -53.7661  -24.6574 C   0  0  0  0  0  0  0  0  0  0  0  0
   -0.5528  -53.2733  -23.4221 C   0  0  0  0  0  0  0  0  0  0  0  0
    0.3034  -52.1635  -23.2221 C   0  0  0  0  0  0  0  0  0  0  0  0
    0.8620  -51.6150  -24.3098 C   0  0  0  0  0  0  0  0  0  0  0  0
    1.8334  -50.4841  -24.2483 C   0  0  0  0  0  0  0  0  0  0  0  0
    0.6028  -52.1198  -25.5857 C   0  0  0  0  0  0  0  0  0  0  0  0
   -0.6876  -52.8189  -28.0902 C   0  0  0  0  0  0  0  0  0  0  0  0
   -0.5061  -53.7200  -27.0126 O   0  0  0  0  0  0  0  0  0  0  0  0
 44 45  1  0  0  0
 45 37  1  0  0  0
 37 38  2  0  0  0
 38 39  1  0  0  0
 39 40  2  0  0  0
 40 36  1  0  0  0
 36  1  1  0  0  0
  1  2  1  0  0  0
  2  3  1  0  0  0
  3  4  2  0  0  0
  3  5  1  0  0  0
  5  8  1  0  0  0
  8  9  2  0  0  0
  9 10  1  0  0  0
 10 11  2  0  0  0
 11 12  1  0  0  0
 11 13  1  0  0  0
 13 14  2  0  0  0
  1 15  1  0  0  0
 15 16  2  0  0  0
 15 17  1  0  0  0
 17 19  1  0  0  0
 19 31  1  0  0  0
 31 32  1  0  0  0
 32 33  1  0  0  0
 32 34  2  0  0  0
 19 20  1  0  0  0
 20 21  2  0  0  0
 20 22  1  0  0  0
 22 23  1  0  0  0
 23 24  1  0  0  0
 24 25  1  0  0  0
 25 26  2  0  0  0
 26 27  1  0  0  0
 27 28  2  0  0  0
 28 29  1  0  0  0
 29 30  2  0  0  0
 40 41  1  0  0  0
 41 42  1  0  0  0
 41 43  2  0  0  0
 43 37  1  0  0  0
 14  8  1  0  0  0
 30 25  1  0  0  0
  2  6  1  0  0  0
  5  7  1  0  0  0
 17 18  1  0  0  0
 33 35  1  0  0  0
M  END
> <minimizedAffinity>
-6.48383

> <CNNscore>
0.1128016189

> <CNNaffinity>
6.3172926903

> <CNN_VS>
0.7126008272

> <CNNaffinity_variance>
0.3540358245

$$$$
[H]OC(=O)C([H])([H])[C@@]([H])(C(=O)C([H])([H])SC([H])([H])c1c([H])c([H])c([H])c([H])c1[H])N([H])C(=O)[C@@]([H])(N([H])C(=O)N([H])c1c([H])c([H])c(F)c([H])c1[H])C([H])([H])c1c([H])c([H])c(OC([H])([H])[H])c([H])c1C([H])([H])[H]


 45 47  0  0  0  0  0  0  0  0999 V2000
    1.1152  -51.5346  -20.4227 C   0  0  0  0  0  0  0  0  0  0  0  0
    0.7844  -50.7605  -19.2668 N   0  0  0  0  0  0  0  0  0  0  0  0
   -0.0283  -51.3089  -18.2024 C   0  0  0  0  0  0  0  0  0  0  0  0
   -0.4226  -52.5250  -18.3118 O   0  0  0  0  0  0  0  0  0  0  0  0
   -0.3745  -50.5474  -17.0878 N   0  0  0  0  0  0  0  0  0  0  0  0
    1.1410  -49.8141  -19.1309 H   0  0  0  0  0  0  0  0  0  0  0  0
   -0.0834  -49.5367  -17.0560 H   0  0  0  0  0  0  0  0  0  0  0  0
   -1.0973  -51.0531  -16.0015 C   0  0  0  0  0  0  0  0  0  0  0  0
   -2.4758  -51.2247  -16.0828 C   0  0  0  0  0  0  0  0  0  0  0  0
   -3.1760  -51.6852  -14.9875 C   0  0  0  0  0  0  0  0  0  0  0  0
   -2.5695  -51.9885  -13.7894 C   0  0  0  0  0  0  0  0  0  0  0  0
   -3.2849  -52.4418  -12.7335 F   0  0  0  0  0  0  0  0  0  0  0  0
   -1.2098  -51.8141  -13.7194 C   0  0  0  0  0  0  0  0  0  0  0  0
   -0.4902  -51.3526  -14.8146 C   0  0  0  0  0  0  0  0  0  0  0  0
    2.6032  -51.6360  -20.5371 C   0  0  0  0  0  0  0  0  0  0  0  0
    3.2696  -52.1716  -19.5828 O   0  0  0  0  0  0  0  0  0  0  0  0
    3.3182  -51.1687  -21.6398 N   0  0  0  0  0  0  0  0  0  0  0  0
    2.8385  -50.7090  -22.4247 H   0  0  0  0  0  0  0  0  0  0  0  0
    4.7988  -51.3268  -21.6841 C   0  0  0  0  0  0  0  0  0  0  0  0
    5.4016  -49.9723  -21.6229 C   0  0  0  0  0  0  0  0  0  0  0  0
    5.0415  -49.1736  -22.5153 O   0  0  0  0  0  0  0  0  0  0  0  0
    6.3590  -49.4519  -20.6571 C   0  0  0  0  0  0  0  0  0  0  0  0
    5.7401  -48.7133  -19.1718 S   0  0  0  0  0  0  0  0  0  0  0  0
    3.9650  -48.5908  -19.0332 C   0  0  0  0  0  0  0  0  0  0  0  0
    3.4173  -48.8156  -17.6849 C   0  0  0  0  0  0  0  0  0  0  0  0
    2.6791  -47.9583  -16.9421 C   0  0  0  0  0  0  0  0  0  0  0  0
    2.2067  -48.2751  -15.6761 C   0  0  0  0  0  0  0  0  0  0  0  0
    2.4896  -49.5045  -15.1419 C   0  0  0  0  0  0  0  0  0  0  0  0
    3.2383  -50.4079  -15.8692 C   0  0  0  0  0  0  0  0  0  0  0  0
    3.6934  -50.0631  -17.1172 C   0  0  0  0  0  0  0  0  0  0  0  0
    5.1319  -52.1272  -22.8776 C   0  0  0  0  0  0  0  0  0  0  0  0
    4.1723  -52.0564  -23.9887 C   0  0  0  0  0  0  0  0  0  0  0  0
    4.0182  -50.9118  -24.7104 O   0  0  0  0  0  0  0  0  0  0  0  0
    3.4907  -53.0603  -24.2788 O   0  0  0  0  0  0  0  0  0  0  0  0
    4.5158  -50.7926  -25.5713 H   0  0  0  0  0  0  0  0  0  0  0  0
    0.5131  -51.2307  -21.7268 C   0  0  0  0  0  0  0  0  0  0  0  0
   -0.6686  -54.6001  -24.0424 C   0  0  0  0  0  0  0  0  0  0  0  0
   -0.6635  -54.6360  -22.6614 C   0  0  0  0  0  0  0  0  0  0  0  0
   -0.2613  -53.5529  -21.9562 C   0  0  0  0  0  0  0  0  0  0  0  0
    0.1636  -52.3630  -22.5952 C   0  0  0  0  0  0  0  0  0  0  0  0
    0.1544  -52.3486  -23.9353 C   0  0  0  0  0  0  0  0  0  0  0  0
    0.6346  -51.1903  -24.7440 C   0  0  0  0  0  0  0  0  0  0  0  0
   -0.2621  -53.4637  -24.6654 C   0  0  0  0  0  0  0  0  0  0  0  0
   -0.3292  -56.1420  -25.8475 C   0  0  0  0  0  0  0  0  0  0  0  0
   -1.0889  -55.7306  -24.7250 O   0  0  0  0  0  0  0  0  0  0  0  0
 44 45  1  0  0  0
 45 37  1  0  0  0
 37 38  2  0  0  0
 38 39  1  0  0  0
 39 40  2  0  0  0
 40 36  1  0  0  0
 36  1  1  0  0  0
  1  2  1  0  0  0
  2  3  1  0  0  0
  3  4  2  0  0  0
  3  5  1  0  0  0
  5  8  1  0  0  0
  8  9  2  0  0  0
  9 10  1  0  0  0
 10 11  2  0  0  0
 11 12  1  0  0  0
 11 13  1  0  0  0
 13 14  2  0  0  0
  1 15  1  0  0  0
 15 16  2  0  0  0
 15 17  1  0  0  0
 17 19  1  0  0  0
 19 31  1  0  0  0
 31 32  1  0  0  0
 32 33  1  0  0  0
 32 34  2  0  0  0
 19 20  1  0  0  0
 20 21  2  0  0  0
 20 22  1  0  0  0
 22 23  1  0  0  0
 23 24  1  0  0  0
 24 25  1  0  0  0
 25 26  2  0  0  0
 26 27  1  0  0  0
 27 28  2  0  0  0
 28 29  1  0  0  0
 29 30  2  0  0  0
 40 41  1  0  0  0
 41 42  1  0  0  0
 41 43  2  0  0  0
 43 37  1  0  0  0
 14  8  1  0  0  0
 30 25  1  0  0  0
  2  6  1  0  0  0
  5  7  1  0  0  0
 17 18  1  0  0  0
 33 35  1  0  0  0
M  END
> <minimizedAffinity>
-6.49964

> <CNNscore>
0.0984561890

> <CNNaffinity>
6.0825204849

> <CNN_VS>
0.5988618135

> <CNNaffinity_variance>
0.4172629416

$$$$
[H]OC(=O)C([H])([H])[C@@]([H])(C(=O)C([H])([H])SC([H])([H])c1c([H])c([H])c([H])c([H])c1[H])N([H])C(=O)[C@@]([H])(N([H])C(=O)N([H])c1c([H])c([H])c(F)c([H])c1[H])C([H])([H])c1c([H])c([H])c(OC([H])([H])[H])c([H])c1C([H])([H])[H]


 45 47  0  0  0  0  0  0  0  0999 V2000
    1.8153  -51.3393  -21.4586 C   0  0  0  0  0  0  0  0  0  0  0  0
    2.2203  -52.0147  -22.6521 N   0  0  0  0  0  0  0  0  0  0  0  0
    1.3625  -52.0624  -23.8167 C   0  0  0  0  0  0  0  0  0  0  0  0
    0.2340  -51.4545  -23.7582 O   0  0  0  0  0  0  0  0  0  0  0  0
    1.7437  -52.7431  -24.9714 N   0  0  0  0  0  0  0  0  0  0  0  0
    3.1394  -52.4491  -22.7411 H   0  0  0  0  0  0  0  0  0  0  0  0
    2.6493  -53.2789  -24.9664 H   0  0  0  0  0  0  0  0  0  0  0  0
    0.9822  -52.7589  -26.1453 C   0  0  0  0  0  0  0  0  0  0  0  0
   -0.4054  -52.6685  -26.0939 C   0  0  0  0  0  0  0  0  0  0  0  0
   -1.1408  -52.7275  -27.2591 C   0  0  0  0  0  0  0  0  0  0  0  0
   -0.5613  -52.8775  -28.4988 C   0  0  0  0  0  0  0  0  0  0  0  0
   -1.3113  -52.9288  -29.6245 F   0  0  0  0  0  0  0  0  0  0  0  0
    0.8077  -52.9673  -28.5381 C   0  0  0  0  0  0  0  0  0  0  0  0
    1.5626  -52.9078  -27.3733 C   0  0  0  0  0  0  0  0  0  0  0  0
    2.3026  -49.9258  -21.5042 C   0  0  0  0  0  0  0  0  0  0  0  0
    1.4859  -48.9918  -21.8241 O   0  0  0  0  0  0  0  0  0  0  0  0
    3.6183  -49.5618  -21.2179 N   0  0  0  0  0  0  0  0  0  0  0  0
    4.3229  -50.2714  -20.9780 H   0  0  0  0  0  0  0  0  0  0  0  0
    4.0177  -48.1275  -21.2666 C   0  0  0  0  0  0  0  0  0  0  0  0
    5.1244  -47.9979  -22.2465 C   0  0  0  0  0  0  0  0  0  0  0  0
    6.2706  -48.2444  -21.8114 O   0  0  0  0  0  0  0  0  0  0  0  0
    5.0486  -47.6207  -23.6509 C   0  0  0  0  0  0  0  0  0  0  0  0
    3.7119  -48.2561  -24.6227 S   0  0  0  0  0  0  0  0  0  0  0  0
    4.0642  -48.5564  -26.3463 C   0  0  0  0  0  0  0  0  0  0  0  0
    3.4942  -47.5798  -27.2895 C   0  0  0  0  0  0  0  0  0  0  0  0
    2.5379  -46.6550  -27.0402 C   0  0  0  0  0  0  0  0  0  0  0  0
    2.0730  -45.7749  -28.0074 C   0  0  0  0  0  0  0  0  0  0  0  0
    2.5952  -45.8303  -29.2728 C   0  0  0  0  0  0  0  0  0  0  0  0
    3.5738  -46.7586  -29.5662 C   0  0  0  0  0  0  0  0  0  0  0  0
    4.0101  -47.6172  -28.5885 C   0  0  0  0  0  0  0  0  0  0  0  0
    4.3226  -47.6966  -19.8892 C   0  0  0  0  0  0  0  0  0  0  0  0
    4.8481  -48.7349  -18.9913 C   0  0  0  0  0  0  0  0  0  0  0  0
    6.1864  -48.8615  -18.7729 O   0  0  0  0  0  0  0  0  0  0  0  0
    4.0574  -49.5102  -18.4167 O   0  0  0  0  0  0  0  0  0  0  0  0
    6.6060  -48.4275  -17.9738 H   0  0  0  0  0  0  0  0  0  0  0  0
    2.0646  -51.9328  -20.1391 C   0  0  0  0  0  0  0  0  0  0  0  0
   -1.2799  -52.3393  -17.5390 C   0  0  0  0  0  0  0  0  0  0  0  0
   -0.2814  -51.4160  -17.2960 C   0  0  0  0  0  0  0  0  0  0  0  0
    0.7792  -51.3281  -18.1323 C   0  0  0  0  0  0  0  0  0  0  0  0
    0.9050  -52.1649  -19.2674 C   0  0  0  0  0  0  0  0  0  0  0  0
   -0.0722  -53.0560  -19.4846 C   0  0  0  0  0  0  0  0  0  0  0  0
   -0.0437  -54.0449  -20.6017 C   0  0  0  0  0  0  0  0  0  0  0  0
   -1.1687  -53.1475  -18.6249 C   0  0  0  0  0  0  0  0  0  0  0  0
   -2.4630  -51.3614  -15.6965 C   0  0  0  0  0  0  0  0  0  0  0  0
   -2.3484  -52.3949  -16.6582 O   0  0  0  0  0  0  0  0  0  0  0  0
 44 45  1  0  0  0
 45 37  1  0  0  0
 37 38  2  0  0  0
 38 39  1  0  0  0
 39 40  2  0  0  0
 40 36  1  0  0  0
 36  1  1  0  0  0
  1  2  1  0  0  0
  2  3  1  0  0  0
  3  4  2  0  0  0
  3  5  1  0  0  0
  5  8  1  0  0  0
  8  9  2  0  0  0
  9 10  1  0  0  0
 10 11  2  0  0  0
 11 12  1  0  0  0
 11 13  1  0  0  0
 13 14  2  0  0  0
  1 15  1  0  0  0
 15 16  2  0  0  0
 15 17  1  0  0  0
 17 19  1  0  0  0
 19 31  1  0  0  0
 31 32  1  0  0  0
 32 33  1  0  0  0
 32 34  2  0  0  0
 19 20  1  0  0  0
 20 21  2  0  0  0
 20 22  1  0  0  0
 22 23  1  0  0  0
 23 24  1  0  0  0
 24 25  1  0  0  0
 25 26  2  0  0  0
 26 27  1  0  0  0
 27 28  2  0  0  0
 28 29  1  0  0  0
 29 30  2  0  0  0
 40 41  1  0  0  0
 41 42  1  0  0  0
 41 43  2  0  0  0
 43 37  1  0  0  0
 14  8  1  0  0  0
 30 25  1  0  0  0
  2  6  1  0  0  0
  5  7  1  0  0  0
 17 18  1  0  0  0
 33 35  1  0  0  0
M  END
> <minimizedAffinity>
-7.28465

> <CNNscore>
0.0970135629

> <CNNaffinity>
6.2595262527

> <CNN_VS>
0.6072589159

> <CNNaffinity_variance>
0.3051623702

$$$$
[H]OC(=O)C([H])([H])[C@@]([H])(C(=O)C([H])([H])SC([H])([H])c1c([H])c([H])c([H])c([H])c1[H])N([H])C(=O)[C@@]([H])(N([H])C(=O)N([H])c1c([H])c([H])c(F)c([H])c1[H])C([H])([H])c1c([H])c([H])c(OC([H])([H])[H])c([H])c1C([H])([H])[H]


 45 47  0  0  0  0  0  0  0  0999 V2000
    3.1026  -51.3934  -25.1458 C   0  0  0  0  0  0  0  0  0  0  0  0
    3.0487  -49.9671  -25.0581 N   0  0  0  0  0  0  0  0  0  0  0  0
    3.2852  -49.1334  -26.2171 C   0  0  0  0  0  0  0  0  0  0  0  0
    3.5180  -49.7130  -27.3380 O   0  0  0  0  0  0  0  0  0  0  0  0
    3.2600  -47.7429  -26.1282 N   0  0  0  0  0  0  0  0  0  0  0  0
    2.8022  -49.4886  -24.1912 H   0  0  0  0  0  0  0  0  0  0  0  0
    3.1233  -47.2994  -25.1839 H   0  0  0  0  0  0  0  0  0  0  0  0
    3.4122  -46.8958  -27.2316 C   0  0  0  0  0  0  0  0  0  0  0  0
    4.6785  -46.5273  -27.6757 C   0  0  0  0  0  0  0  0  0  0  0  0
    4.8070  -45.6585  -28.7390 C   0  0  0  0  0  0  0  0  0  0  0  0
    3.7237  -45.1220  -29.3977 C   0  0  0  0  0  0  0  0  0  0  0  0
    3.8838  -44.2741  -30.4406 F   0  0  0  0  0  0  0  0  0  0  0  0
    2.4795  -45.4907  -28.9507 C   0  0  0  0  0  0  0  0  0  0  0  0
    2.3334  -46.3662  -27.8819 C   0  0  0  0  0  0  0  0  0  0  0  0
    1.7501  -51.9146  -25.5156 C   0  0  0  0  0  0  0  0  0  0  0  0
    0.7353  -51.1369  -25.4333 O   0  0  0  0  0  0  0  0  0  0  0  0
    1.5272  -53.2219  -25.9475 N   0  0  0  0  0  0  0  0  0  0  0  0
    2.3005  -53.8969  -26.0107 H   0  0  0  0  0  0  0  0  0  0  0  0
    0.1507  -53.6559  -26.3164 C   0  0  0  0  0  0  0  0  0  0  0  0
   -0.3398  -54.5633  -25.2497 C   0  0  0  0  0  0  0  0  0  0  0  0
   -0.2447  -55.7874  -25.4877 O   0  0  0  0  0  0  0  0  0  0  0  0
   -0.9180  -54.2128  -23.9601 C   0  0  0  0  0  0  0  0  0  0  0  0
    0.1022  -53.3763  -22.7791 S   0  0  0  0  0  0  0  0  0  0  0  0
   -0.5777  -53.1949  -21.1391 C   0  0  0  0  0  0  0  0  0  0  0  0
   -0.0591  -52.0581  -20.3599 C   0  0  0  0  0  0  0  0  0  0  0  0
    0.2443  -52.0332  -19.0412 C   0  0  0  0  0  0  0  0  0  0  0  0
    0.7340  -50.9019  -18.4037 C   0  0  0  0  0  0  0  0  0  0  0  0
    0.9257  -49.7537  -19.1261 C   0  0  0  0  0  0  0  0  0  0  0  0
    0.6297  -49.7393  -20.4743 C   0  0  0  0  0  0  0  0  0  0  0  0
    0.1439  -50.8738  -21.0748 C   0  0  0  0  0  0  0  0  0  0  0  0
    0.2066  -54.2288  -27.6745 C   0  0  0  0  0  0  0  0  0  0  0  0
    1.3842  -53.8690  -28.4772 C   0  0  0  0  0  0  0  0  0  0  0  0
    1.5513  -52.6021  -28.9482 O   0  0  0  0  0  0  0  0  0  0  0  0
    2.2465  -54.7349  -28.7284 O   0  0  0  0  0  0  0  0  0  0  0  0
    2.1135  -51.9489  -28.4380 H   0  0  0  0  0  0  0  0  0  0  0  0
    3.6879  -52.1903  -24.0604 C   0  0  0  0  0  0  0  0  0  0  0  0
    5.5611  -50.2366  -20.7763 C   0  0  0  0  0  0  0  0  0  0  0  0
    4.2488  -50.6635  -20.7126 C   0  0  0  0  0  0  0  0  0  0  0  0
    3.6776  -51.2624  -21.7835 C   0  0  0  0  0  0  0  0  0  0  0  0
    4.3897  -51.4698  -22.9896 C   0  0  0  0  0  0  0  0  0  0  0  0
    5.6605  -51.0461  -23.0330 C   0  0  0  0  0  0  0  0  0  0  0  0
    6.5120  -51.1386  -24.2547 C   0  0  0  0  0  0  0  0  0  0  0  0
    6.2530  -50.4299  -21.9290 C   0  0  0  0  0  0  0  0  0  0  0  0
    6.9496  -48.5091  -19.8605 C   0  0  0  0  0  0  0  0  0  0  0  0
    6.1070  -49.6291  -19.6566 O   0  0  0  0  0  0  0  0  0  0  0  0
 44 45  1  0  0  0
 45 37  1  0  0  0
 37 38  2  0  0  0
 38 39  1  0  0  0
 39 40  2  0  0  0
 40 36  1  0  0  0
 36  1  1  0  0  0
  1  2  1  0  0  0
  2  3  1  0  0  0
  3  4  2  0  0  0
  3  5  1  0  0  0
  5  8  1  0  0  0
  8  9  2  0  0  0
  9 10  1  0  0  0
 10 11  2  0  0  0
 11 12  1  0  0  0
 11 13  1  0  0  0
 13 14  2  0  0  0
  1 15  1  0  0  0
 15 16  2  0  0  0
 15 17  1  0  0  0
 17 19  1  0  0  0
 19 31  1  0  0  0
 31 32  1  0  0  0
 32 33  1  0  0  0
 32 34  2  0  0  0
 19 20  1  0  0  0
 20 21  2  0  0  0
 20 22  1  0  0  0
 22 23  1  0  0  0
 23 24  1  0  0  0
 24 25  1  0  0  0
 25 26  2  0  0  0
 26 27  1  0  0  0
 27 28  2  0  0  0
 28 29  1  0  0  0
 29 30  2  0  0  0
 40 41  1  0  0  0
 41 42  1  0  0  0
 41 43  2  0  0  0
 43 37  1  0  0  0
 14  8  1  0  0  0
 30 25  1  0  0  0
  2  6  1  0  0  0
  5  7  1  0  0  0
 17 18  1  0  0  0
 33 35  1  0  0  0
M  END
> <minimizedAffinity>
-7.69962

> <CNNscore>
0.0790041834

> <CNNaffinity>
6.6941046715

> <CNN_VS>
0.5288622975

> <CNNaffinity_variance>
0.1574208438

$$$$
[H]c1c([H])c([H])c(C([H])([H])N([H])C(=O)[C@]([H])(N([H])C(=O)[C@@]2([H])N(C(=O)c3c([H])c([H])c(C(F)(F)F)c([H])c3[H])C([H])([H])C([H])([H])C2([H])[H])C([H])([H])C([H])(C([H])([H])[H])C([H])([H])[H])c([H])c1[H]


 37 39  0  0  0  0  0  0  0  0999 V2000
    2.2429  -51.3872  -21.4474 N   0  0  0  0  0  0  0  0  0  0  0  0
    3.5706  -51.4573  -21.1143 C   0  0  0  0  0  0  0  0  0  0  0  0
    3.9778  -51.5570  -19.9363 O   0  0  0  0  0  0  0  0  0  0  0  0
    2.0171  -51.2790  -22.5008 H   0  0  0  0  0  0  0  0  0  0  0  0
    4.5905  -51.4284  -22.2034 C   0  0  0  0  0  0  0  0  0  0  0  0
    5.9944  -51.3953  -21.7325 C   0  0  0  0  0  0  0  0  0  0  0  0
    6.0692  -49.9736  -21.1904 C   0  0  0  0  0  0  0  0  0  0  0  0
    5.3528  -49.2294  -22.2873 C   0  0  0  0  0  0  0  0  0  0  0  0
    4.4806  -50.1555  -22.9702 N   0  0  0  0  0  0  0  0  0  0  0  0
    3.6332  -50.0755  -24.0870 C   0  0  0  0  0  0  0  0  0  0  0  0
    2.9833  -51.1362  -24.4122 O   0  0  0  0  0  0  0  0  0  0  0  0
    3.4026  -48.9260  -24.9275 C   0  0  0  0  0  0  0  0  0  0  0  0
    3.3549  -49.0911  -26.3239 C   0  0  0  0  0  0  0  0  0  0  0  0
    3.1363  -48.0582  -27.1926 C   0  0  0  0  0  0  0  0  0  0  0  0
    2.9487  -46.7712  -26.7512 C   0  0  0  0  0  0  0  0  0  0  0  0
    2.9900  -46.5747  -25.3988 C   0  0  0  0  0  0  0  0  0  0  0  0
    3.2157  -47.6381  -24.5014 C   0  0  0  0  0  0  0  0  0  0  0  0
    2.7534  -45.6388  -27.7109 C   0  0  0  0  0  0  0  0  0  0  0  0
    1.4345  -45.6572  -28.1397 F   0  0  0  0  0  0  0  0  0  0  0  0
    3.1536  -44.4624  -27.1876 F   0  0  0  0  0  0  0  0  0  0  0  0
    3.5234  -45.9493  -28.8655 F   0  0  0  0  0  0  0  0  0  0  0  0
    1.0101  -51.4109  -20.6503 C   0  0  0  0  0  0  0  0  0  0  0  0
    0.1581  -52.4078  -21.3474 C   0  0  0  0  0  0  0  0  0  0  0  0
   -0.7898  -52.9993  -20.7966 O   0  0  0  0  0  0  0  0  0  0  0  0
    0.4563  -52.6353  -22.7177 N   0  0  0  0  0  0  0  0  0  0  0  0
    1.2746  -52.1072  -23.1893 H   0  0  0  0  0  0  0  0  0  0  0  0
   -0.2333  -53.4864  -23.6405 C   0  0  0  0  0  0  0  0  0  0  0  0
   -0.0755  -53.2463  -25.0687 C   0  0  0  0  0  0  0  0  0  0  0  0
   -0.0929  -51.9846  -25.6282 C   0  0  0  0  0  0  0  0  0  0  0  0
    0.1192  -51.7979  -26.9928 C   0  0  0  0  0  0  0  0  0  0  0  0
    0.3430  -52.8924  -27.7966 C   0  0  0  0  0  0  0  0  0  0  0  0
    0.3595  -54.1652  -27.2784 C   0  0  0  0  0  0  0  0  0  0  0  0
    0.1532  -54.3445  -25.9313 C   0  0  0  0  0  0  0  0  0  0  0  0
    1.3429  -51.7682  -19.2557 C   0  0  0  0  0  0  0  0  0  0  0  0
    1.1582  -49.4032  -18.6350 C   0  0  0  0  0  0  0  0  0  0  0  0
    1.0049  -50.8351  -18.1754 C   0  0  0  0  0  0  0  0  0  0  0  0
   -0.2617  -51.0229  -17.4064 C   0  0  0  0  0  0  0  0  0  0  0  0
 35 36  1  0  0  0
 36 37  1  0  0  0
 36 34  1  0  0  0
 34 22  1  0  0  0
 22  1  1  0  0  0
  1  2  1  0  0  0
  2  3  2  0  0  0
  2  5  1  0  0  0
  5  6  1  0  0  0
  6  7  1  0  0  0
  7  8  1  0  0  0
  8  9  1  0  0  0
  9 10  1  0  0  0
 10 11  2  0  0  0
 10 12  1  0  0  0
 12 13  2  0  0  0
 13 14  1  0  0  0
 14 15  2  0  0  0
 15 16  1  0  0  0
 16 17  2  0  0  0
 15 18  1  0  0  0
 18 19  1  0  0  0
 18 20  1  0  0  0
 18 21  1  0  0  0
 22 23  1  0  0  0
 23 24  2  0  0  0
 23 25  1  0  0  0
 25 27  1  0  0  0
 27 28  1  0  0  0
 28 29  2  0  0  0
 29 30  1  0  0  0
 30 31  2  0  0  0
 31 32  1  0  0  0
 32 33  2  0  0  0
  9  5  1  0  0  0
 17 12  1  0  0  0
 33 28  1  0  0  0
  1  4  1  0  0  0
 25 26  1  0  0  0
M  END
> <minimizedAffinity>
-7.24357

> <CNNscore>
0.3728162944

> <CNNaffinity>
6.6691284180

> <CNN_VS>
2.4863598347

> <CNNaffinity_variance>
0.6099637747

$$$$
[H]c1c([H])c([H])c(C([H])([H])N([H])C(=O)[C@]([H])(N([H])C(=O)[C@@]2([H])N(C(=O)c3c([H])c([H])c(C(F)(F)F)c([H])c3[H])C([H])([H])C([H])([H])C2([H])[H])C([H])([H])C([H])(C([H])([H])[H])C([H])([H])[H])c([H])c1[H]


 37 39  0  0  0  0  0  0  0  0999 V2000
    2.0066  -51.4767  -22.0591 N   0  0  0  0  0  0  0  0  0  0  0  0
    3.0208  -51.4510  -21.1374 C   0  0  0  0  0  0  0  0  0  0  0  0
    2.9743  -52.0653  -20.0493 O   0  0  0  0  0  0  0  0  0  0  0  0
    2.1554  -50.8847  -22.9535 H   0  0  0  0  0  0  0  0  0  0  0  0
    4.2529  -50.6659  -21.4417 C   0  0  0  0  0  0  0  0  0  0  0  0
    4.8796  -50.0214  -20.2644 C   0  0  0  0  0  0  0  0  0  0  0  0
    3.8647  -48.9213  -19.9805 C   0  0  0  0  0  0  0  0  0  0  0  0
    3.6006  -48.4310  -21.3806 C   0  0  0  0  0  0  0  0  0  0  0  0
    3.9127  -49.4979  -22.3021 N   0  0  0  0  0  0  0  0  0  0  0  0
    3.9340  -49.6218  -23.7007 C   0  0  0  0  0  0  0  0  0  0  0  0
    4.2667  -50.7644  -24.1871 O   0  0  0  0  0  0  0  0  0  0  0  0
    3.6232  -48.6019  -24.6724 C   0  0  0  0  0  0  0  0  0  0  0  0
    3.4464  -48.9646  -26.0202 C   0  0  0  0  0  0  0  0  0  0  0  0
    3.1452  -48.0644  -27.0042 C   0  0  0  0  0  0  0  0  0  0  0  0
    2.9959  -46.7255  -26.7366 C   0  0  0  0  0  0  0  0  0  0  0  0
    3.1622  -46.3380  -25.4360 C   0  0  0  0  0  0  0  0  0  0  0  0
    3.4732  -47.2644  -24.4200 C   0  0  0  0  0  0  0  0  0  0  0  0
    2.7092  -45.7402  -27.8266 C   0  0  0  0  0  0  0  0  0  0  0  0
    3.5289  -46.0369  -28.9053 F   0  0  0  0  0  0  0  0  0  0  0  0
    1.3948  -45.6873  -28.1227 F   0  0  0  0  0  0  0  0  0  0  0  0
    3.1574  -44.4750  -27.3568 F   0  0  0  0  0  0  0  0  0  0  0  0
    0.7009  -52.1475  -22.0897 C   0  0  0  0  0  0  0  0  0  0  0  0
    0.7414  -52.9419  -23.3438 C   0  0  0  0  0  0  0  0  0  0  0  0
    0.1373  -54.0219  -23.4871 O   0  0  0  0  0  0  0  0  0  0  0  0
    1.4893  -52.3821  -24.4142 N   0  0  0  0  0  0  0  0  0  0  0  0
    2.0004  -51.4376  -24.2825 H   0  0  0  0  0  0  0  0  0  0  0  0
    1.6472  -52.8950  -25.7422 C   0  0  0  0  0  0  0  0  0  0  0  0
    0.5318  -52.7875  -26.6730 C   0  0  0  0  0  0  0  0  0  0  0  0
   -0.7359  -52.3982  -26.2899 C   0  0  0  0  0  0  0  0  0  0  0  0
   -1.7593  -52.2538  -27.2247 C   0  0  0  0  0  0  0  0  0  0  0  0
   -1.5018  -52.5112  -28.5519 C   0  0  0  0  0  0  0  0  0  0  0  0
   -0.2549  -52.9090  -28.9714 C   0  0  0  0  0  0  0  0  0  0  0  0
    0.7524  -53.0468  -28.0465 C   0  0  0  0  0  0  0  0  0  0  0  0
    0.5449  -52.9578  -20.8641 C   0  0  0  0  0  0  0  0  0  0  0  0
   -1.7269  -53.7862  -20.4569 C   0  0  0  0  0  0  0  0  0  0  0  0
   -0.6615  -52.7959  -20.0452 C   0  0  0  0  0  0  0  0  0  0  0  0
   -0.5403  -52.7199  -18.5584 C   0  0  0  0  0  0  0  0  0  0  0  0
 35 36  1  0  0  0
 36 37  1  0  0  0
 36 34  1  0  0  0
 34 22  1  0  0  0
 22  1  1  0  0  0
  1  2  1  0  0  0
  2  3  2  0  0  0
  2  5  1  0  0  0
  5  6  1  0  0  0
  6  7  1  0  0  0
  7  8  1  0  0  0
  8  9  1  0  0  0
  9 10  1  0  0  0
 10 11  2  0  0  0
 10 12  1  0  0  0
 12 13  2  0  0  0
 13 14  1  0  0  0
 14 15  2  0  0  0
 15 16  1  0  0  0
 16 17  2  0  0  0
 15 18  1  0  0  0
 18 19  1  0  0  0
 18 20  1  0  0  0
 18 21  1  0  0  0
 22 23  1  0  0  0
 23 24  2  0  0  0
 23 25  1  0  0  0
 25 27  1  0  0  0
 27 28  1  0  0  0
 28 29  2  0  0  0
 29 30  1  0  0  0
 30 31  2  0  0  0
 31 32  1  0  0  0
 32 33  2  0  0  0
  9  5  1  0  0  0
 17 12  1  0  0  0
 33 28  1  0  0  0
  1  4  1  0  0  0
 25 26  1  0  0  0
M  END
> <minimizedAffinity>
-8.06469

> <CNNscore>
0.2927125990

> <CNNaffinity>
6.5890884399

> <CNN_VS>
1.9287091494

> <CNNaffinity_variance>
0.2122467309

$$$$
[H]c1c([H])c([H])c(C([H])([H])N([H])C(=O)[C@]([H])(N([H])C(=O)[C@@]2([H])N(C(=O)c3c([H])c([H])c(C(F)(F)F)c([H])c3[H])C([H])([H])C([H])([H])C2([H])[H])C([H])([H])C([H])(C([H])([H])[H])C([H])([H])[H])c([H])c1[H]


 37 39  0  0  0  0  0  0  0  0999 V2000
    0.1444  -52.9637  -24.1972 N   0  0  0  0  0  0  0  0  0  0  0  0
    0.1956  -52.5836  -22.8813 C   0  0  0  0  0  0  0  0  0  0  0  0
    0.2066  -51.3889  -22.5126 O   0  0  0  0  0  0  0  0  0  0  0  0
    0.1638  -54.0289  -24.3906 H   0  0  0  0  0  0  0  0  0  0  0  0
    0.2257  -53.6384  -21.8261 C   0  0  0  0  0  0  0  0  0  0  0  0
   -0.5872  -54.8385  -22.1308 C   0  0  0  0  0  0  0  0  0  0  0  0
   -1.9906  -54.2684  -21.9691 C   0  0  0  0  0  0  0  0  0  0  0  0
   -1.8102  -53.4626  -20.7088 C   0  0  0  0  0  0  0  0  0  0  0  0
   -0.4113  -53.1292  -20.5790 N   0  0  0  0  0  0  0  0  0  0  0  0
    0.3627  -52.4725  -19.6087 C   0  0  0  0  0  0  0  0  0  0  0  0
    1.6210  -52.3484  -19.8420 O   0  0  0  0  0  0  0  0  0  0  0  0
   -0.0936  -51.9126  -18.3600 C   0  0  0  0  0  0  0  0  0  0  0  0
    0.3636  -50.6416  -17.9662 C   0  0  0  0  0  0  0  0  0  0  0  0
   -0.0215  -50.0351  -16.8030 C   0  0  0  0  0  0  0  0  0  0  0  0
   -0.8918  -50.6382  -15.9281 C   0  0  0  0  0  0  0  0  0  0  0  0
   -1.3551  -51.8756  -16.2796 C   0  0  0  0  0  0  0  0  0  0  0  0
   -0.9589  -52.5030  -17.4782 C   0  0  0  0  0  0  0  0  0  0  0  0
   -1.2746  -49.9863  -14.6359 C   0  0  0  0  0  0  0  0  0  0  0  0
   -2.1423  -48.9418  -14.9182 F   0  0  0  0  0  0  0  0  0  0  0  0
   -1.7483  -50.8795  -13.7439 F   0  0  0  0  0  0  0  0  0  0  0  0
   -0.0986  -49.3659  -14.1315 F   0  0  0  0  0  0  0  0  0  0  0  0
    0.0838  -52.2073  -25.4543 C   0  0  0  0  0  0  0  0  0  0  0  0
    1.4932  -51.8038  -25.6917 C   0  0  0  0  0  0  0  0  0  0  0  0
    1.8144  -50.7092  -26.1924 O   0  0  0  0  0  0  0  0  0  0  0  0
    2.4869  -52.7306  -25.2770 N   0  0  0  0  0  0  0  0  0  0  0  0
    2.1969  -53.6734  -24.8324 H   0  0  0  0  0  0  0  0  0  0  0  0
    3.9102  -52.5782  -25.3267 C   0  0  0  0  0  0  0  0  0  0  0  0
    4.5948  -52.0035  -24.1763 C   0  0  0  0  0  0  0  0  0  0  0  0
    5.8738  -51.4883  -24.2393 C   0  0  0  0  0  0  0  0  0  0  0  0
    6.4683  -50.8961  -23.1267 C   0  0  0  0  0  0  0  0  0  0  0  0
    5.7693  -50.8309  -21.9431 C   0  0  0  0  0  0  0  0  0  0  0  0
    4.4971  -51.3402  -21.8382 C   0  0  0  0  0  0  0  0  0  0  0  0
    3.9132  -51.9204  -22.9390 C   0  0  0  0  0  0  0  0  0  0  0  0
   -0.4855  -53.0697  -26.5104 C   0  0  0  0  0  0  0  0  0  0  0  0
   -0.0705  -52.9395  -28.9236 C   0  0  0  0  0  0  0  0  0  0  0  0
   -0.9262  -52.4640  -27.7717 C   0  0  0  0  0  0  0  0  0  0  0  0
   -2.3756  -52.4809  -28.1326 C   0  0  0  0  0  0  0  0  0  0  0  0
 35 36  1  0  0  0
 36 37  1  0  0  0
 36 34  1  0  0  0
 34 22  1  0  0  0
 22  1  1  0  0  0
  1  2  1  0  0  0
  2  3  2  0  0  0
  2  5  1  0  0  0
  5  6  1  0  0  0
  6  7  1  0  0  0
  7  8  1  0  0  0
  8  9  1  0  0  0
  9 10  1  0  0  0
 10 11  2  0  0  0
 10 12  1  0  0  0
 12 13  2  0  0  0
 13 14  1  0  0  0
 14 15  2  0  0  0
 15 16  1  0  0  0
 16 17  2  0  0  0
 15 18  1  0  0  0
 18 19  1  0  0  0
 18 20  1  0  0  0
 18 21  1  0  0  0
 22 23  1  0  0  0
 23 24  2  0  0  0
 23 25  1  0  0  0
 25 27  1  0  0  0
 27 28  1  0  0  0
 28 29  2  0  0  0
 29 30  1  0  0  0
 30 31  2  0  0  0
 31 32  1  0  0  0
 32 33  2  0  0  0
  9  5  1  0  0  0
 17 12  1  0  0  0
 33 28  1  0  0  0
  1  4  1  0  0  0
 25 26  1  0  0  0
M  END
> <minimizedAffinity>
-8.30864

> <CNNscore>
0.2544904053

> <CNNaffinity>
6.5873045921

> <CNN_VS>
1.6764057875

> <CNNaffinity_variance>
0.2564908266

$$$$
[H]c1c([H])c([H])c(C([H])([H])N([H])C(=O)[C@]([H])(N([H])C(=O)[C@@]2([H])N(C(=O)c3c([H])c([H])c(C(F)(F)F)c([H])c3[H])C([H])([H])C([H])([H])C2([H])[H])C([H])([H])C([H])(C([H])([H])[H])C([H])([H])[H])c([H])c1[H]


 37 39  0  0  0  0  0  0  0  0999 V2000
    1.8504  -52.0654  -20.4680 N   0  0  0  0  0  0  0  0  0  0  0  0
    3.0713  -51.4503  -20.3691 C   0  0  0  0  0  0  0  0  0  0  0  0
    3.7188  -51.3791  -19.3019 O   0  0  0  0  0  0  0  0  0  0  0  0
    1.3777  -52.0408  -21.4419 H   0  0  0  0  0  0  0  0  0  0  0  0
    3.6750  -50.8437  -21.5917 C   0  0  0  0  0  0  0  0  0  0  0  0
    4.0145  -49.4076  -21.4638 C   0  0  0  0  0  0  0  0  0  0  0  0
    2.6200  -48.7944  -21.4613 C   0  0  0  0  0  0  0  0  0  0  0  0
    1.9758  -49.5864  -22.5695 C   0  0  0  0  0  0  0  0  0  0  0  0
    2.6811  -50.8394  -22.7018 N   0  0  0  0  0  0  0  0  0  0  0  0
    2.5961  -51.9343  -23.5770 C   0  0  0  0  0  0  0  0  0  0  0  0
    3.4098  -52.9104  -23.3820 O   0  0  0  0  0  0  0  0  0  0  0  0
    1.6902  -52.0958  -24.6879 C   0  0  0  0  0  0  0  0  0  0  0  0
    1.7989  -53.2350  -25.5064 C   0  0  0  0  0  0  0  0  0  0  0  0
    0.9793  -53.4694  -26.5753 C   0  0  0  0  0  0  0  0  0  0  0  0
   -0.0177  -52.5925  -26.9266 C   0  0  0  0  0  0  0  0  0  0  0  0
   -0.1507  -51.4734  -26.1524 C   0  0  0  0  0  0  0  0  0  0  0  0
    0.6936  -51.2294  -25.0502 C   0  0  0  0  0  0  0  0  0  0  0  0
   -0.8826  -52.8349  -28.1243 C   0  0  0  0  0  0  0  0  0  0  0  0
   -2.2081  -52.7763  -27.7203 F   0  0  0  0  0  0  0  0  0  0  0  0
   -0.5727  -52.0078  -29.1431 F   0  0  0  0  0  0  0  0  0  0  0  0
   -0.6713  -54.1876  -28.5091 F   0  0  0  0  0  0  0  0  0  0  0  0
    1.0019  -52.7646  -19.4948 C   0  0  0  0  0  0  0  0  0  0  0  0
    0.4148  -51.6666  -18.6853 C   0  0  0  0  0  0  0  0  0  0  0  0
    0.2203  -50.5196  -19.1306 O   0  0  0  0  0  0  0  0  0  0  0  0
    0.0402  -52.0015  -17.3565 N   0  0  0  0  0  0  0  0  0  0  0  0
    0.2030  -53.0042  -16.9838 H   0  0  0  0  0  0  0  0  0  0  0  0
   -0.5983  -51.1665  -16.3835 C   0  0  0  0  0  0  0  0  0  0  0  0
   -2.0168  -51.3611  -16.1148 C   0  0  0  0  0  0  0  0  0  0  0  0
   -2.7281  -52.4531  -16.5696 C   0  0  0  0  0  0  0  0  0  0  0  0
   -4.0709  -52.6272  -16.2401 C   0  0  0  0  0  0  0  0  0  0  0  0
   -4.6994  -51.6894  -15.4530 C   0  0  0  0  0  0  0  0  0  0  0  0
   -4.0275  -50.5844  -14.9878 C   0  0  0  0  0  0  0  0  0  0  0  0
   -2.7023  -50.4184  -15.3124 C   0  0  0  0  0  0  0  0  0  0  0  0
    0.0068  -53.5813  -20.2200 C   0  0  0  0  0  0  0  0  0  0  0  0
   -0.6485  -54.5801  -22.3614 C   0  0  0  0  0  0  0  0  0  0  0  0
   -0.2425  -53.3148  -21.6409 C   0  0  0  0  0  0  0  0  0  0  0  0
   -1.1116  -52.1659  -22.0356 C   0  0  0  0  0  0  0  0  0  0  0  0
 35 36  1  0  0  0
 36 37  1  0  0  0
 36 34  1  0  0  0
 34 22  1  0  0  0
 22  1  1  0  0  0
  1  2  1  0  0  0
  2  3  2  0  0  0
  2  5  1  0  0  0
  5  6  1  0  0  0
  6  7  1  0  0  0
  7  8  1  0  0  0
  8  9  1  0  0  0
  9 10  1  0  0  0
 10 11  2  0  0  0
 10 12  1  0  0  0
 12 13  2  0  0  0
 13 14  1  0  0  0
 14 15  2  0  0  0
 15 16  1  0  0  0
 16 17  2  0  0  0
 15 18  1  0  0  0
 18 19  1  0  0  0
 18 20  1  0  0  0
 18 21  1  0  0  0
 22 23  1  0  0  0
 23 24  2  0  0  0
 23 25  1  0  0  0
 25 27  1  0  0  0
 27 28  1  0  0  0
 28 29  2  0  0  0
 29 30  1  0  0  0
 30 31  2  0  0  0
 31 32  1  0  0  0
 32 33  2  0  0  0
  9  5  1  0  0  0
 17 12  1  0  0  0
 33 28  1  0  0  0
  1  4  1  0  0  0
 25 26  1  0  0  0
M  END
> <minimizedAffinity>
-8.54546

> <CNNscore>
0.1762137264

> <CNNaffinity>
6.1411185265

> <CNN_VS>
1.0821493864

> <CNNaffinity_variance>
0.4354051054

$$$$
[H]c1c([H])c([H])c(C([H])([H])N([H])C(=O)[C@]([H])(N([H])C(=O)[C@@]2([H])N(C(=O)c3c([H])c([H])c(C(F)(F)F)c([H])c3[H])C([H])([H])C([H])([H])C2([H])[H])C([H])([H])C([H])(C([H])([H])[H])C([H])([H])[H])c([H])c1[H]


 37 39  0  0  0  0  0  0  0  0999 V2000
    4.1457  -47.9303  -23.9874 N   0  0  0  0  0  0  0  0  0  0  0  0
    5.0682  -46.9187  -23.9222 C   0  0  0  0  0  0  0  0  0  0  0  0
    6.2048  -47.0583  -23.4202 O   0  0  0  0  0  0  0  0  0  0  0  0
    3.1875  -47.6791  -24.4245 H   0  0  0  0  0  0  0  0  0  0  0  0
    4.7160  -45.5833  -24.4876 C   0  0  0  0  0  0  0  0  0  0  0  0
    3.8313  -44.7637  -23.6276 C   0  0  0  0  0  0  0  0  0  0  0  0
    2.5207  -45.5262  -23.7754 C   0  0  0  0  0  0  0  0  0  0  0  0
    2.5282  -45.7888  -25.2591 C   0  0  0  0  0  0  0  0  0  0  0  0
    3.8959  -45.7525  -25.7201 N   0  0  0  0  0  0  0  0  0  0  0  0
    4.5196  -45.8535  -26.9742 C   0  0  0  0  0  0  0  0  0  0  0  0
    5.8030  -45.7811  -27.0029 O   0  0  0  0  0  0  0  0  0  0  0  0
    3.8807  -46.0303  -28.2554 C   0  0  0  0  0  0  0  0  0  0  0  0
    4.4923  -46.8470  -29.2241 C   0  0  0  0  0  0  0  0  0  0  0  0
    3.9539  -47.0729  -30.4604 C   0  0  0  0  0  0  0  0  0  0  0  0
    2.7632  -46.5059  -30.8439 C   0  0  0  0  0  0  0  0  0  0  0  0
    2.1420  -45.7049  -29.9263 C   0  0  0  0  0  0  0  0  0  0  0  0
    2.6955  -45.4702  -28.6513 C   0  0  0  0  0  0  0  0  0  0  0  0
    2.2021  -46.7233  -32.2148 C   0  0  0  0  0  0  0  0  0  0  0  0
    2.5796  -47.9877  -32.6416 F   0  0  0  0  0  0  0  0  0  0  0  0
    0.8741  -46.4938  -32.2560 F   0  0  0  0  0  0  0  0  0  0  0  0
    2.8828  -45.8214  -33.0784 F   0  0  0  0  0  0  0  0  0  0  0  0
    4.1708  -49.3347  -23.5594 C   0  0  0  0  0  0  0  0  0  0  0  0
    2.7470  -49.6403  -23.2678 C   0  0  0  0  0  0  0  0  0  0  0  0
    2.0228  -48.9105  -22.5645 O   0  0  0  0  0  0  0  0  0  0  0  0
    2.2231  -50.8137  -23.8736 N   0  0  0  0  0  0  0  0  0  0  0  0
    2.8580  -51.4340  -24.4923 H   0  0  0  0  0  0  0  0  0  0  0  0
    0.8813  -51.3116  -23.8162 C   0  0  0  0  0  0  0  0  0  0  0  0
    0.5405  -52.2935  -22.7955 C   0  0  0  0  0  0  0  0  0  0  0  0
    0.8009  -52.1076  -21.4527 C   0  0  0  0  0  0  0  0  0  0  0  0
    0.4056  -53.0491  -20.5044 C   0  0  0  0  0  0  0  0  0  0  0  0
   -0.2496  -54.1872  -20.9162 C   0  0  0  0  0  0  0  0  0  0  0  0
   -0.5195  -54.4124  -22.2448 C   0  0  0  0  0  0  0  0  0  0  0  0
   -0.1309  -53.4795  -23.1765 C   0  0  0  0  0  0  0  0  0  0  0  0
    4.7588  -50.1578  -24.6364 C   0  0  0  0  0  0  0  0  0  0  0  0
    6.7316  -50.5360  -23.2300 C   0  0  0  0  0  0  0  0  0  0  0  0
    5.8394  -51.0962  -24.3142 C   0  0  0  0  0  0  0  0  0  0  0  0
    5.5191  -52.5330  -24.0613 C   0  0  0  0  0  0  0  0  0  0  0  0
 35 36  1  0  0  0
 36 37  1  0  0  0
 36 34  1  0  0  0
 34 22  1  0  0  0
 22  1  1  0  0  0
  1  2  1  0  0  0
  2  3  2  0  0  0
  2  5  1  0  0  0
  5  6  1  0  0  0
  6  7  1  0  0  0
  7  8  1  0  0  0
  8  9  1  0  0  0
  9 10  1  0  0  0
 10 11  2  0  0  0
 10 12  1  0  0  0
 12 13  2  0  0  0
 13 14  1  0  0  0
 14 15  2  0  0  0
 15 16  1  0  0  0
 16 17  2  0  0  0
 15 18  1  0  0  0
 18 19  1  0  0  0
 18 20  1  0  0  0
 18 21  1  0  0  0
 22 23  1  0  0  0
 23 24  2  0  0  0
 23 25  1  0  0  0
 25 27  1  0  0  0
 27 28  1  0  0  0
 28 29  2  0  0  0
 29 30  1  0  0  0
 30 31  2  0  0  0
 31 32  1  0  0  0
 32 33  2  0  0  0
  9  5  1  0  0  0
 17 12  1  0  0  0
 33 28  1  0  0  0
  1  4  1  0  0  0
 25 26  1  0  0  0
M  END
> <minimizedAffinity>
-7.34958

> <CNNscore>
0.1700442135

> <CNNaffinity>
5.4574499130

> <CNN_VS>
0.9280077815

> <CNNaffinity_variance>
0.5388274789

$$$$
[H]c1c([H])c([H])c(C([H])([H])N([H])C(=O)[C@]([H])(N([H])C(=O)[C@@]2([H])N(C(=O)c3c([H])c([H])c(C(F)(F)F)c([H])c3[H])C([H])([H])C([H])([H])C2([H])[H])C([H])([H])C([H])(C([H])([H])[H])C([H])([H])[H])c([H])c1[H]


 37 39  0  0  0  0  0  0  0  0999 V2000
    3.9731  -47.8352  -23.0926 N   0  0  0  0  0  0  0  0  0  0  0  0
    4.3362  -47.0805  -22.0076 C   0  0  0  0  0  0  0  0  0  0  0  0
    5.1389  -46.1242  -22.0752 O   0  0  0  0  0  0  0  0  0  0  0  0
    3.2877  -48.6515  -22.9021 H   0  0  0  0  0  0  0  0  0  0  0  0
    3.7403  -47.3967  -20.6764 C   0  0  0  0  0  0  0  0  0  0  0  0
    4.7166  -47.4655  -19.5647 C   0  0  0  0  0  0  0  0  0  0  0  0
    5.4332  -48.7653  -19.9080 C   0  0  0  0  0  0  0  0  0  0  0  0
    4.2568  -49.6320  -20.2758 C   0  0  0  0  0  0  0  0  0  0  0  0
    3.1712  -48.7737  -20.6876 N   0  0  0  0  0  0  0  0  0  0  0  0
    1.8358  -48.9822  -21.0686 C   0  0  0  0  0  0  0  0  0  0  0  0
    1.1441  -47.9463  -21.3870 O   0  0  0  0  0  0  0  0  0  0  0  0
    1.1361  -50.2413  -21.1451 C   0  0  0  0  0  0  0  0  0  0  0  0
    0.6772  -50.8483  -19.9616 C   0  0  0  0  0  0  0  0  0  0  0  0
    0.0017  -52.0368  -19.9433 C   0  0  0  0  0  0  0  0  0  0  0  0
   -0.2749  -52.7278  -21.0977 C   0  0  0  0  0  0  0  0  0  0  0  0
    0.1581  -52.1665  -22.2668 C   0  0  0  0  0  0  0  0  0  0  0  0
    0.8552  -50.9414  -22.2879 C   0  0  0  0  0  0  0  0  0  0  0  0
   -0.9767  -54.0498  -21.0655 C   0  0  0  0  0  0  0  0  0  0  0  0
   -1.8939  -54.0280  -20.0255 F   0  0  0  0  0  0  0  0  0  0  0  0
   -1.5016  -54.3690  -22.2658 F   0  0  0  0  0  0  0  0  0  0  0  0
   -0.0047  -55.0149  -20.6831 F   0  0  0  0  0  0  0  0  0  0  0  0
    4.3409  -47.7848  -24.5132 C   0  0  0  0  0  0  0  0  0  0  0  0
    4.5635  -49.2089  -24.8709 C   0  0  0  0  0  0  0  0  0  0  0  0
    5.6719  -49.7701  -24.7792 O   0  0  0  0  0  0  0  0  0  0  0  0
    3.4179  -49.9323  -25.2981 N   0  0  0  0  0  0  0  0  0  0  0  0
    2.4576  -49.4379  -25.3628 H   0  0  0  0  0  0  0  0  0  0  0  0
    3.3291  -51.3199  -25.6420 C   0  0  0  0  0  0  0  0  0  0  0  0
    2.0136  -51.9412  -25.7171 C   0  0  0  0  0  0  0  0  0  0  0  0
    1.8032  -53.2899  -25.5121 C   0  0  0  0  0  0  0  0  0  0  0  0
    0.5195  -53.8315  -25.5373 C   0  0  0  0  0  0  0  0  0  0  0  0
   -0.5559  -53.0071  -25.7780 C   0  0  0  0  0  0  0  0  0  0  0  0
   -0.3865  -51.6606  -25.9952 C   0  0  0  0  0  0  0  0  0  0  0  0
    0.8811  -51.1300  -25.9661 C   0  0  0  0  0  0  0  0  0  0  0  0
    3.2532  -47.1327  -25.2713 C   0  0  0  0  0  0  0  0  0  0  0  0
    3.0974  -45.1219  -26.6661 C   0  0  0  0  0  0  0  0  0  0  0  0
    3.1458  -45.6697  -25.2579 C   0  0  0  0  0  0  0  0  0  0  0  0
    2.1262  -45.0117  -24.3870 C   0  0  0  0  0  0  0  0  0  0  0  0
 35 36  1  0  0  0
 36 37  1  0  0  0
 36 34  1  0  0  0
 34 22  1  0  0  0
 22  1  1  0  0  0
  1  2  1  0  0  0
  2  3  2  0  0  0
  2  5  1  0  0  0
  5  6  1  0  0  0
  6  7  1  0  0  0
  7  8  1  0  0  0
  8  9  1  0  0  0
  9 10  1  0  0  0
 10 11  2  0  0  0
 10 12  1  0  0  0
 12 13  2  0  0  0
 13 14  1  0  0  0
 14 15  2  0  0  0
 15 16  1  0  0  0
 16 17  2  0  0  0
 15 18  1  0  0  0
 18 19  1  0  0  0
 18 20  1  0  0  0
 18 21  1  0  0  0
 22 23  1  0  0  0
 23 24  2  0  0  0
 23 25  1  0  0  0
 25 27  1  0  0  0
 27 28  1  0  0  0
 28 29  2  0  0  0
 29 30  1  0  0  0
 30 31  2  0  0  0
 31 32  1  0  0  0
 32 33  2  0  0  0
  9  5  1  0  0  0
 17 12  1  0  0  0
 33 28  1  0  0  0
  1  4  1  0  0  0
 25 26  1  0  0  0
M  END
> <minimizedAffinity>
-7.55106

> <CNNscore>
0.1589764655

> <CNNaffinity>
6.0306100845

> <CNN_VS>
0.9587250948

> <CNNaffinity_variance>
0.3578050733

$$$$
[H]c1c([H])c([H])c(C([H])([H])N([H])C(=O)[C@]([H])(N([H])C(=O)[C@@]2([H])N(C(=O)c3c([H])c([H])c(C(F)(F)F)c([H])c3[H])C([H])([H])C([H])([H])C2([H])[H])C([H])([H])C([H])(C([H])([H])[H])C([H])([H])[H])c([H])c1[H]


 37 39  0  0  0  0  0  0  0  0999 V2000
    3.9508  -47.8522  -24.8393 N   0  0  0  0  0  0  0  0  0  0  0  0
    5.0069  -47.6350  -23.9931 C   0  0  0  0  0  0  0  0  0  0  0  0
    6.0738  -47.0915  -24.3533 O   0  0  0  0  0  0  0  0  0  0  0  0
    3.0900  -48.3531  -24.4144 H   0  0  0  0  0  0  0  0  0  0  0  0
    4.8847  -48.0504  -22.5649 C   0  0  0  0  0  0  0  0  0  0  0  0
    6.1716  -48.3635  -21.9018 C   0  0  0  0  0  0  0  0  0  0  0  0
    6.5205  -49.6792  -22.5859 C   0  0  0  0  0  0  0  0  0  0  0  0
    5.1770  -50.3609  -22.5591 C   0  0  0  0  0  0  0  0  0  0  0  0
    4.1540  -49.3456  -22.4722 N   0  0  0  0  0  0  0  0  0  0  0  0
    2.7553  -49.3594  -22.3477 C   0  0  0  0  0  0  0  0  0  0  0  0
    2.1551  -48.2232  -22.3061 O   0  0  0  0  0  0  0  0  0  0  0  0
    1.8981  -50.5161  -22.2581 C   0  0  0  0  0  0  0  0  0  0  0  0
    0.6729  -50.4151  -21.5737 C   0  0  0  0  0  0  0  0  0  0  0  0
   -0.2009  -51.4588  -21.4455 C   0  0  0  0  0  0  0  0  0  0  0  0
    0.0662  -52.6942  -21.9829 C   0  0  0  0  0  0  0  0  0  0  0  0
    1.2498  -52.8277  -22.6543 C   0  0  0  0  0  0  0  0  0  0  0  0
    2.1524  -51.7532  -22.7872 C   0  0  0  0  0  0  0  0  0  0  0  0
   -0.8757  -53.8436  -21.8008 C   0  0  0  0  0  0  0  0  0  0  0  0
   -1.9748  -53.3934  -21.0847 F   0  0  0  0  0  0  0  0  0  0  0  0
   -1.1783  -54.4354  -22.9739 F   0  0  0  0  0  0  0  0  0  0  0  0
   -0.2242  -54.7681  -20.9387 F   0  0  0  0  0  0  0  0  0  0  0  0
    3.7318  -47.5558  -26.2606 C   0  0  0  0  0  0  0  0  0  0  0  0
    3.6044  -48.8970  -26.8854 C   0  0  0  0  0  0  0  0  0  0  0  0
    3.9291  -49.1340  -28.0645 O   0  0  0  0  0  0  0  0  0  0  0  0
    3.1181  -49.9342  -26.0451 N   0  0  0  0  0  0  0  0  0  0  0  0
    2.8502  -49.7196  -25.0190 H   0  0  0  0  0  0  0  0  0  0  0  0
    2.9546  -51.3215  -26.3616 C   0  0  0  0  0  0  0  0  0  0  0  0
    1.6355  -51.9230  -26.2184 C   0  0  0  0  0  0  0  0  0  0  0  0
    1.4015  -53.2744  -26.3743 C   0  0  0  0  0  0  0  0  0  0  0  0
    0.1330  -53.8146  -26.1716 C   0  0  0  0  0  0  0  0  0  0  0  0
   -0.9052  -52.9838  -25.8167 C   0  0  0  0  0  0  0  0  0  0  0  0
   -0.7139  -51.6318  -25.6601 C   0  0  0  0  0  0  0  0  0  0  0  0
    0.5396  -51.1037  -25.8576 C   0  0  0  0  0  0  0  0  0  0  0  0
    2.5301  -46.7071  -26.3977 C   0  0  0  0  0  0  0  0  0  0  0  0
    3.7209  -44.6718  -27.0706 C   0  0  0  0  0  0  0  0  0  0  0  0
    2.5475  -45.5852  -27.3429 C   0  0  0  0  0  0  0  0  0  0  0  0
    2.3963  -45.8490  -28.8053 C   0  0  0  0  0  0  0  0  0  0  0  0
 35 36  1  0  0  0
 36 37  1  0  0  0
 36 34  1  0  0  0
 34 22  1  0  0  0
 22  1  1  0  0  0
  1  2  1  0  0  0
  2  3  2  0  0  0
  2  5  1  0  0  0
  5  6  1  0  0  0
  6  7  1  0  0  0
  7  8  1  0  0  0
  8  9  1  0  0  0
  9 10  1  0  0  0
 10 11  2  0  0  0
 10 12  1  0  0  0
 12 13  2  0  0  0
 13 14  1  0  0  0
 14 15  2  0  0  0
 15 16  1  0  0  0
 16 17  2  0  0  0
 15 18  1  0  0  0
 18 19  1  0  0  0
 18 20  1  0  0  0
 18 21  1  0  0  0
 22 23  1  0  0  0
 23 24  2  0  0  0
 23 25  1  0  0  0
 25 27  1  0  0  0
 27 28  1  0  0  0
 28 29  2  0  0  0
 29 30  1  0  0  0
 30 31  2  0  0  0
 31 32  1  0  0  0
 32 33  2  0  0  0
  9  5  1  0  0  0
 17 12  1  0  0  0
 33 28  1  0  0  0
  1  4  1  0  0  0
 25 26  1  0  0  0
M  END
> <minimizedAffinity>
-7.76726

> <CNNscore>
0.1587834656

> <CNNaffinity>
5.8185782433

> <CNN_VS>
0.9238940477

> <CNNaffinity_variance>
0.8242565393

$$$$
[H]c1c([H])c([H])c(C([H])([H])N([H])C(=O)[C@]([H])(N([H])C(=O)[C@@]2([H])N(C(=O)c3c([H])c([H])c(C(F)(F)F)c([H])c3[H])C([H])([H])C([H])([H])C2([H])[H])C([H])([H])C([H])(C([H])([H])[H])C([H])([H])[H])c([H])c1[H]


 37 39  0  0  0  0  0  0  0  0999 V2000
    3.9522  -49.1640  -20.9252 N   0  0  0  0  0  0  0  0  0  0  0  0
    5.1846  -49.0674  -21.5172 C   0  0  0  0  0  0  0  0  0  0  0  0
    5.9124  -48.0550  -21.4243 O   0  0  0  0  0  0  0  0  0  0  0  0
    3.4069  -50.0834  -21.0983 H   0  0  0  0  0  0  0  0  0  0  0  0
    5.7008  -50.2265  -22.3028 C   0  0  0  0  0  0  0  0  0  0  0  0
    6.9763  -49.9717  -23.0114 C   0  0  0  0  0  0  0  0  0  0  0  0
    6.4972  -49.0320  -24.1106 C   0  0  0  0  0  0  0  0  0  0  0  0
    5.2300  -49.7315  -24.5293 C   0  0  0  0  0  0  0  0  0  0  0  0
    4.7692  -50.5373  -23.4234 N   0  0  0  0  0  0  0  0  0  0  0  0
    3.7131  -51.4430  -23.2324 C   0  0  0  0  0  0  0  0  0  0  0  0
    3.6033  -51.9857  -22.0720 O   0  0  0  0  0  0  0  0  0  0  0  0
    2.7214  -51.8443  -24.2000 C   0  0  0  0  0  0  0  0  0  0  0  0
    1.8282  -50.8847  -24.7107 C   0  0  0  0  0  0  0  0  0  0  0  0
    0.8624  -51.1772  -25.6331 C   0  0  0  0  0  0  0  0  0  0  0  0
    0.6972  -52.4481  -26.1271 C   0  0  0  0  0  0  0  0  0  0  0  0
    1.5484  -53.4063  -25.6509 C   0  0  0  0  0  0  0  0  0  0  0  0
    2.5445  -53.1070  -24.6995 C   0  0  0  0  0  0  0  0  0  0  0  0
   -0.3907  -52.7693  -27.1042 C   0  0  0  0  0  0  0  0  0  0  0  0
   -0.4568  -54.1478  -27.2409 F   0  0  0  0  0  0  0  0  0  0  0  0
   -1.5580  -52.1855  -26.7657 F   0  0  0  0  0  0  0  0  0  0  0  0
    0.0479  -52.2914  -28.3697 F   0  0  0  0  0  0  0  0  0  0  0  0
    3.1717  -48.2458  -20.0863 C   0  0  0  0  0  0  0  0  0  0  0  0
    1.7934  -48.7952  -20.1493 C   0  0  0  0  0  0  0  0  0  0  0  0
    0.8825  -48.2768  -20.8225 O   0  0  0  0  0  0  0  0  0  0  0  0
    1.5635  -49.9915  -19.4182 N   0  0  0  0  0  0  0  0  0  0  0  0
    2.3652  -50.4398  -18.8463 H   0  0  0  0  0  0  0  0  0  0  0  0
    0.3606  -50.7661  -19.3508 C   0  0  0  0  0  0  0  0  0  0  0  0
    0.1781  -51.8618  -20.2932 C   0  0  0  0  0  0  0  0  0  0  0  0
    0.3837  -53.1856  -19.9604 C   0  0  0  0  0  0  0  0  0  0  0  0
    0.1416  -54.2059  -20.8781 C   0  0  0  0  0  0  0  0  0  0  0  0
   -0.3036  -53.8861  -22.1405 C   0  0  0  0  0  0  0  0  0  0  0  0
   -0.5121  -52.5796  -22.5124 C   0  0  0  0  0  0  0  0  0  0  0  0
   -0.2753  -51.5765  -21.6030 C   0  0  0  0  0  0  0  0  0  0  0  0
    3.7522  -48.2206  -18.7278 C   0  0  0  0  0  0  0  0  0  0  0  0
    3.9670  -47.2331  -16.4936 C   0  0  0  0  0  0  0  0  0  0  0  0
    3.7380  -46.9681  -17.9641 C   0  0  0  0  0  0  0  0  0  0  0  0
    4.5488  -45.8059  -18.4362 C   0  0  0  0  0  0  0  0  0  0  0  0
 35 36  1  0  0  0
 36 37  1  0  0  0
 36 34  1  0  0  0
 34 22  1  0  0  0
 22  1  1  0  0  0
  1  2  1  0  0  0
  2  3  2  0  0  0
  2  5  1  0  0  0
  5  6  1  0  0  0
  6  7  1  0  0  0
  7  8  1  0  0  0
  8  9  1  0  0  0
  9 10  1  0  0  0
 10 11  2  0  0  0
 10 12  1  0  0  0
 12 13  2  0  0  0
 13 14  1  0  0  0
 14 15  2  0  0  0
 15 16  1  0  0  0
 16 17  2  0  0  0
 15 18  1  0  0  0
 18 19  1  0  0  0
 18 20  1  0  0  0
 18 21  1  0  0  0
 22 23  1  0  0  0
 23 24  2  0  0  0
 23 25  1  0  0  0
 25 27  1  0  0  0
 27 28  1  0  0  0
 28 29  2  0  0  0
 29 30  1  0  0  0
 30 31  2  0  0  0
 31 32  1  0  0  0
 32 33  2  0  0  0
  9  5  1  0  0  0
 17 12  1  0  0  0
 33 28  1  0  0  0
  1  4  1  0  0  0
 25 26  1  0  0  0
M  END
> <minimizedAffinity>
-7.43224

> <CNNscore>
0.1562076360

> <CNNaffinity>
5.9736065865

> <CNN_VS>
0.9331229925

> <CNNaffinity_variance>
0.4826154113

$$$$
[H]c1c([H])c([H])c(C([H])([H])N([H])C(=O)[C@]([H])(N([H])C(=O)[C@@]2([H])N(C(=O)c3c([H])c([H])c(C(F)(F)F)c([H])c3[H])C([H])([H])C([H])([H])C2([H])[H])C([H])([H])C([H])(C([H])([H])[H])C([H])([H])[H])c([H])c1[H]


 37 39  0  0  0  0  0  0  0  0999 V2000
    0.5182  -53.2697  -24.1888 N   0  0  0  0  0  0  0  0  0  0  0  0
    0.4248  -52.7596  -22.9200 C   0  0  0  0  0  0  0  0  0  0  0  0
    0.3501  -51.5354  -22.6769 O   0  0  0  0  0  0  0  0  0  0  0  0
    0.6006  -54.3464  -24.2686 H   0  0  0  0  0  0  0  0  0  0  0  0
    0.3957  -53.7022  -21.7634 C   0  0  0  0  0  0  0  0  0  0  0  0
   -0.4874  -54.8770  -21.9478 C   0  0  0  0  0  0  0  0  0  0  0  0
   -1.8544  -54.2117  -21.8490 C   0  0  0  0  0  0  0  0  0  0  0  0
   -1.6231  -53.2947  -20.6760 C   0  0  0  0  0  0  0  0  0  0  0  0
   -0.2067  -53.0329  -20.5762 N   0  0  0  0  0  0  0  0  0  0  0  0
    0.6075  -52.3282  -19.6749 C   0  0  0  0  0  0  0  0  0  0  0  0
    1.8702  -52.3028  -19.9156 O   0  0  0  0  0  0  0  0  0  0  0  0
    0.1886  -51.6190  -18.4906 C   0  0  0  0  0  0  0  0  0  0  0  0
   -0.6996  -52.2396  -17.5931 C   0  0  0  0  0  0  0  0  0  0  0  0
   -1.1431  -51.6425  -16.4459 C   0  0  0  0  0  0  0  0  0  0  0  0
   -0.7458  -50.3766  -16.0909 C   0  0  0  0  0  0  0  0  0  0  0  0
    0.1170  -49.7436  -16.9419 C   0  0  0  0  0  0  0  0  0  0  0  0
    0.5751  -50.3571  -18.1255 C   0  0  0  0  0  0  0  0  0  0  0  0
   -1.2699  -49.7130  -14.8554 C   0  0  0  0  0  0  0  0  0  0  0  0
   -0.2586  -48.9266  -14.3241 F   0  0  0  0  0  0  0  0  0  0  0  0
   -2.4235  -49.0554  -15.0895 F   0  0  0  0  0  0  0  0  0  0  0  0
   -1.4789  -50.7448  -13.8994 F   0  0  0  0  0  0  0  0  0  0  0  0
    0.5491  -52.6451  -25.5172 C   0  0  0  0  0  0  0  0  0  0  0  0
    1.9695  -52.2460  -25.6867 C   0  0  0  0  0  0  0  0  0  0  0  0
    2.8247  -52.9778  -26.2206 O   0  0  0  0  0  0  0  0  0  0  0  0
    2.3107  -50.9431  -25.2347 N   0  0  0  0  0  0  0  0  0  0  0  0
    1.5572  -50.3114  -24.7831 H   0  0  0  0  0  0  0  0  0  0  0  0
    3.5774  -50.2812  -25.3281 C   0  0  0  0  0  0  0  0  0  0  0  0
    3.6613  -49.0279  -26.0659 C   0  0  0  0  0  0  0  0  0  0  0  0
    3.9216  -48.9654  -27.4200 C   0  0  0  0  0  0  0  0  0  0  0  0
    3.9360  -47.7469  -28.0961 C   0  0  0  0  0  0  0  0  0  0  0  0
    3.6934  -46.5856  -27.3986 C   0  0  0  0  0  0  0  0  0  0  0  0
    3.4387  -46.6058  -26.0482 C   0  0  0  0  0  0  0  0  0  0  0  0
    3.4220  -47.8101  -25.3859 C   0  0  0  0  0  0  0  0  0  0  0  0
    0.0695  -53.6183  -26.5202 C   0  0  0  0  0  0  0  0  0  0  0  0
   -1.8592  -52.1865  -27.0131 C   0  0  0  0  0  0  0  0  0  0  0  0
   -0.8566  -53.1729  -27.5672 C   0  0  0  0  0  0  0  0  0  0  0  0
   -0.3187  -52.7147  -28.8831 C   0  0  0  0  0  0  0  0  0  0  0  0
 35 36  1  0  0  0
 36 37  1  0  0  0
 36 34  1  0  0  0
 34 22  1  0  0  0
 22  1  1  0  0  0
  1  2  1  0  0  0
  2  3  2  0  0  0
  2  5  1  0  0  0
  5  6  1  0  0  0
  6  7  1  0  0  0
  7  8  1  0  0  0
  8  9  1  0  0  0
  9 10  1  0  0  0
 10 11  2  0  0  0
 10 12  1  0  0  0
 12 13  2  0  0  0
 13 14  1  0  0  0
 14 15  2  0  0  0
 15 16  1  0  0  0
 16 17  2  0  0  0
 15 18  1  0  0  0
 18 19  1  0  0  0
 18 20  1  0  0  0
 18 21  1  0  0  0
 22 23  1  0  0  0
 23 24  2  0  0  0
 23 25  1  0  0  0
 25 27  1  0  0  0
 27 28  1  0  0  0
 28 29  2  0  0  0
 29 30  1  0  0  0
 30 31  2  0  0  0
 31 32  1  0  0  0
 32 33  2  0  0  0
  9  5  1  0  0  0
 17 12  1  0  0  0
 33 28  1  0  0  0
  1  4  1  0  0  0
 25 26  1  0  0  0
M  END
> <minimizedAffinity>
-7.87574

> <CNNscore>
0.1551800817

> <CNNaffinity>
6.3696455956

> <CNN_VS>
0.9884421229

> <CNNaffinity_variance>
0.1889777184

$$$$
[H]c1nc(N([H])c2c([H])c([H])c(N3C([H])([H])C([H])([H])C([H])(N4C([H])([H])C([H])([H])N(C([H])([H])[H])C([H])([H])C4([H])[H])C([H])([H])C3([H])[H])c([H])c2OC([H])([H])[H])nc(N([H])c2c([H])c([H])c([H])c([H])c2S(=O)(=O)C([H])(C([H])([H])[H])C([H])([H])[H])c1Cl


 44 48  0  0  0  0  0  0  0  0999 V2000
    0.6713  -53.3789  -23.5697 N   0  0  0  0  0  0  0  0  0  0  0  0
    0.3585  -54.2036  -24.1969 H   0  0  0  0  0  0  0  0  0  0  0  0
    0.1174  -53.3420  -22.2627 C   0  0  0  0  0  0  0  0  0  0  0  0
   -0.7664  -54.2052  -21.7556 N   0  0  0  0  0  0  0  0  0  0  0  0
   -1.2484  -54.1123  -20.5100 C   0  0  0  0  0  0  0  0  0  0  0  0
   -0.8326  -53.0903  -19.6891 C   0  0  0  0  0  0  0  0  0  0  0  0
   -1.4554  -52.9522  -18.0479 Cl  0  0  0  0  0  0  0  0  0  0  0  0
    0.1006  -52.1650  -20.2006 C   0  0  0  0  0  0  0  0  0  0  0  0
    0.5213  -52.3430  -21.4545 N   0  0  0  0  0  0  0  0  0  0  0  0
    0.5099  -51.1331  -19.3421 N   0  0  0  0  0  0  0  0  0  0  0  0
    0.2281  -51.2720  -18.3163 H   0  0  0  0  0  0  0  0  0  0  0  0
    1.2234  -49.9492  -19.5824 C   0  0  0  0  0  0  0  0  0  0  0  0
    1.0287  -49.2523  -20.7561 C   0  0  0  0  0  0  0  0  0  0  0  0
    1.7346  -48.0697  -21.0117 C   0  0  0  0  0  0  0  0  0  0  0  0
    2.6207  -47.6137  -20.0823 C   0  0  0  0  0  0  0  0  0  0  0  0
    2.8129  -48.3115  -18.9114 C   0  0  0  0  0  0  0  0  0  0  0  0
    2.1359  -49.4707  -18.6356 C   0  0  0  0  0  0  0  0  0  0  0  0
    2.3859  -50.3276  -17.1716 S   0  0  0  0  0  0  0  0  0  0  0  0
    3.4818  -51.3473  -17.3545 O   0  0  0  0  0  0  0  0  0  0  0  0
    1.1728  -51.0448  -16.6489 O   0  0  0  0  0  0  0  0  0  0  0  0
    2.9291  -49.2687  -15.8442 C   0  0  0  0  0  0  0  0  0  0  0  0
    1.8235  -48.3701  -15.3940 C   0  0  0  0  0  0  0  0  0  0  0  0
    3.6449  -49.9980  -14.7566 C   0  0  0  0  0  0  0  0  0  0  0  0
    1.0664  -51.5785  -25.1106 C   0  0  0  0  0  0  0  0  0  0  0  0
    1.8899  -50.6657  -25.7437 C   0  0  0  0  0  0  0  0  0  0  0  0
    3.2402  -50.6011  -25.4811 C   0  0  0  0  0  0  0  0  0  0  0  0
    3.7230  -51.4937  -24.5552 C   0  0  0  0  0  0  0  0  0  0  0  0
    2.9185  -52.4293  -23.8972 C   0  0  0  0  0  0  0  0  0  0  0  0
    1.5736  -52.4889  -24.1631 C   0  0  0  0  0  0  0  0  0  0  0  0
    4.0779  -49.6464  -26.1386 N   0  0  0  0  0  0  0  0  0  0  0  0
    5.1107  -49.0211  -25.3859 C   0  0  0  0  0  0  0  0  0  0  0  0
    6.1681  -48.3099  -26.1826 C   0  0  0  0  0  0  0  0  0  0  0  0
    5.6435  -47.5037  -27.3228 C   0  0  0  0  0  0  0  0  0  0  0  0
    4.2148  -47.8539  -27.6877 C   0  0  0  0  0  0  0  0  0  0  0  0
    3.8990  -49.3024  -27.5288 C   0  0  0  0  0  0  0  0  0  0  0  0
    6.4199  -47.4541  -28.4969 N   0  0  0  0  0  0  0  0  0  0  0  0
    7.5589  -48.2663  -28.6072 C   0  0  0  0  0  0  0  0  0  0  0  0
    8.4333  -47.7702  -29.7623 C   0  0  0  0  0  0  0  0  0  0  0  0
    7.5628  -47.4944  -30.8886 N   0  0  0  0  0  0  0  0  0  0  0  0
    7.0164  -48.6599  -31.5070 C   0  0  0  0  0  0  0  0  0  0  0  0
    6.6393  -46.4342  -30.6428 C   0  0  0  0  0  0  0  0  0  0  0  0
    6.5566  -46.1858  -29.1381 C   0  0  0  0  0  0  0  0  0  0  0  0
   -0.6949  -52.1331  -26.6558 C   0  0  0  0  0  0  0  0  0  0  0  0
   -0.2843  -51.5890  -25.4224 O   0  0  0  0  0  0  0  0  0  0  0  0
 43 44  1  0  0  0
 44 24  1  0  0  0
 24 25  2  0  0  0
 25 26  1  0  0  0
 26 27  2  0  0  0
 27 28  1  0  0  0
 28 29  2  0  0  0
 29  1  1  0  0  0
  1  3  1  0  0  0
  3  4  2  0  0  0
  4  5  1  0  0  0
  5  6  2  0  0  0
  6  7  1  0  0  0
  6  8  1  0  0  0
  8 10  1  0  0  0
 10 12  1  0  0  0
 12 13  2  0  0  0
 13 14  1  0  0  0
 14 15  2  0  0  0
 15 16  1  0  0  0
 16 17  2  0  0  0
 17 18  1  0  0  0
 18 19  2  0  0  0
 18 20  2  0  0  0
 18 21  1  0  0  0
 21 22  1  0  0  0
 21 23  1  0  0  0
  8  9  2  0  0  0
 26 30  1  0  0  0
 30 31  1  0  0  0
 31 32  1  0  0  0
 32 33  1  0  0  0
 33 34  1  0  0  0
 34 35  1  0  0  0
 33 36  1  0  0  0
 36 37  1  0  0  0
 37 38  1  0  0  0
 38 39  1  0  0  0
 39 40  1  0  0  0
 39 41  1  0  0  0
 41 42  1  0  0  0
 29 24  1  0  0  0
  9  3  1  0  0  0
 35 30  1  0  0  0
 42 36  1  0  0  0
 17 12  1  0  0  0
  1  2  1  0  0  0
 10 11  1  0  0  0
M  END
> <minimizedAffinity>
-7.34397

> <CNNscore>
0.3346714377

> <CNNaffinity>
7.4170255661

> <CNN_VS>
2.4822666645

> <CNNaffinity_variance>
0.1441893280

$$$$
[H]c1nc(N([H])c2c([H])c([H])c(N3C([H])([H])C([H])([H])C([H])(N4C([H])([H])C([H])([H])N(C([H])([H])[H])C([H])([H])C4([H])[H])C([H])([H])C3([H])[H])c([H])c2OC([H])([H])[H])nc(N([H])c2c([H])c([H])c([H])c([H])c2S(=O)(=O)C([H])(C([H])([H])[H])C([H])([H])[H])c1Cl


 44 48  0  0  0  0  0  0  0  0999 V2000
    0.5044  -50.9197  -19.4625 N   0  0  0  0  0  0  0  0  0  0  0  0
    0.0939  -50.8243  -18.4657 H   0  0  0  0  0  0  0  0  0  0  0  0
    0.0144  -52.0025  -20.2397 C   0  0  0  0  0  0  0  0  0  0  0  0
   -0.7986  -52.9735  -19.8160 N   0  0  0  0  0  0  0  0  0  0  0  0
   -1.2249  -53.9675  -20.6051 C   0  0  0  0  0  0  0  0  0  0  0  0
   -0.8240  -54.0184  -21.9196 C   0  0  0  0  0  0  0  0  0  0  0  0
   -1.3746  -55.3180  -22.9725 Cl  0  0  0  0  0  0  0  0  0  0  0  0
    0.0349  -53.0046  -22.3921 C   0  0  0  0  0  0  0  0  0  0  0  0
    0.4041  -52.0572  -21.5278 N   0  0  0  0  0  0  0  0  0  0  0  0
    0.4275  -53.0788  -23.7374 N   0  0  0  0  0  0  0  0  0  0  0  0
   -0.3562  -53.3630  -24.4127 H   0  0  0  0  0  0  0  0  0  0  0  0
    1.6625  -52.8475  -24.3616 C   0  0  0  0  0  0  0  0  0  0  0  0
    2.7287  -52.3732  -23.6272 C   0  0  0  0  0  0  0  0  0  0  0  0
    3.9677  -52.1355  -24.2360 C   0  0  0  0  0  0  0  0  0  0  0  0
    4.1078  -52.3796  -25.5692 C   0  0  0  0  0  0  0  0  0  0  0  0
    3.0416  -52.8533  -26.2998 C   0  0  0  0  0  0  0  0  0  0  0  0
    1.8189  -53.0947  -25.7300 C   0  0  0  0  0  0  0  0  0  0  0  0
    0.5009  -53.6859  -26.6538 S   0  0  0  0  0  0  0  0  0  0  0  0
   -0.3683  -54.5732  -25.7985 O   0  0  0  0  0  0  0  0  0  0  0  0
    0.8919  -54.4667  -27.8773 O   0  0  0  0  0  0  0  0  0  0  0  0
   -0.5661  -52.3813  -27.2350 C   0  0  0  0  0  0  0  0  0  0  0  0
   -0.8831  -52.5593  -28.6843 C   0  0  0  0  0  0  0  0  0  0  0  0
   -1.7405  -52.1340  -26.3481 C   0  0  0  0  0  0  0  0  0  0  0  0
    2.7550  -50.0957  -19.2953 C   0  0  0  0  0  0  0  0  0  0  0  0
    3.7510  -49.1829  -19.5903 C   0  0  0  0  0  0  0  0  0  0  0  0
    3.5207  -48.0923  -20.3990 C   0  0  0  0  0  0  0  0  0  0  0  0
    2.2467  -47.9622  -20.8961 C   0  0  0  0  0  0  0  0  0  0  0  0
    1.2167  -48.8661  -20.6176 C   0  0  0  0  0  0  0  0  0  0  0  0
    1.4522  -49.9510  -19.8110 C   0  0  0  0  0  0  0  0  0  0  0  0
    4.5630  -47.1608  -20.7012 N   0  0  0  0  0  0  0  0  0  0  0  0
    4.3029  -45.7735  -20.5228 C   0  0  0  0  0  0  0  0  0  0  0  0
    5.5069  -44.8741  -20.5091 C   0  0  0  0  0  0  0  0  0  0  0  0
    6.5283  -45.1947  -21.5478 C   0  0  0  0  0  0  0  0  0  0  0  0
    6.3430  -46.5708  -22.1555 C   0  0  0  0  0  0  0  0  0  0  0  0
    5.8545  -47.5893  -21.1822 C   0  0  0  0  0  0  0  0  0  0  0  0
    7.8831  -45.0217  -21.2041 N   0  0  0  0  0  0  0  0  0  0  0  0
    8.2844  -43.8507  -20.5430 C   0  0  0  0  0  0  0  0  0  0  0  0
    9.8073  -43.7118  -20.6236 C   0  0  0  0  0  0  0  0  0  0  0  0
   10.3855  -45.0085  -20.3287 N   0  0  0  0  0  0  0  0  0  0  0  0
   10.2696  -45.4053  -18.9618 C   0  0  0  0  0  0  0  0  0  0  0  0
   10.0542  -46.0074  -21.2928 C   0  0  0  0  0  0  0  0  0  0  0  0
    8.8593  -45.5285  -22.1145 C   0  0  0  0  0  0  0  0  0  0  0  0
    3.5205  -50.9220  -17.1672 C   0  0  0  0  0  0  0  0  0  0  0  0
    3.0558  -51.1713  -18.4741 O   0  0  0  0  0  0  0  0  0  0  0  0
 43 44  1  0  0  0
 44 24  1  0  0  0
 24 25  2  0  0  0
 25 26  1  0  0  0
 26 27  2  0  0  0
 27 28  1  0  0  0
 28 29  2  0  0  0
 29  1  1  0  0  0
  1  3  1  0  0  0
  3  4  2  0  0  0
  4  5  1  0  0  0
  5  6  2  0  0  0
  6  7  1  0  0  0
  6  8  1  0  0  0
  8 10  1  0  0  0
 10 12  1  0  0  0
 12 13  2  0  0  0
 13 14  1  0  0  0
 14 15  2  0  0  0
 15 16  1  0  0  0
 16 17  2  0  0  0
 17 18  1  0  0  0
 18 19  2  0  0  0
 18 20  2  0  0  0
 18 21  1  0  0  0
 21 22  1  0  0  0
 21 23  1  0  0  0
  8  9  2  0  0  0
 26 30  1  0  0  0
 30 31  1  0  0  0
 31 32  1  0  0  0
 32 33  1  0  0  0
 33 34  1  0  0  0
 34 35  1  0  0  0
 33 36  1  0  0  0
 36 37  1  0  0  0
 37 38  1  0  0  0
 38 39  1  0  0  0
 39 40  1  0  0  0
 39 41  1  0  0  0
 41 42  1  0  0  0
 29 24  1  0  0  0
  9  3  1  0  0  0
 35 30  1  0  0  0
 42 36  1  0  0  0
 17 12  1  0  0  0
  1  2  1  0  0  0
 10 11  1  0  0  0
M  END
> <minimizedAffinity>
-8.10389

> <CNNscore>
0.2143548280

> <CNNaffinity>
7.2334494591

> <CNN_VS>
1.5505248308

> <CNNaffinity_variance>
0.1578881443

$$$$
[H]c1nc(N([H])c2c([H])c([H])c(N3C([H])([H])C([H])([H])C([H])(N4C([H])([H])C([H])([H])N(C([H])([H])[H])C([H])([H])C4([H])[H])C([H])([H])C3([H])[H])c([H])c2OC([H])([H])[H])nc(N([H])c2c([H])c([H])c([H])c([H])c2S(=O)(=O)C([H])(C([H])([H])[H])C([H])([H])[H])c1Cl


 44 48  0  0  0  0  0  0  0  0999 V2000
    0.5526  -51.2027  -19.5621 N   0  0  0  0  0  0  0  0  0  0  0  0
    0.2571  -51.2372  -18.5216 H   0  0  0  0  0  0  0  0  0  0  0  0
    0.0431  -52.2365  -20.3916 C   0  0  0  0  0  0  0  0  0  0  0  0
   -0.9385  -53.0865  -20.0800 N   0  0  0  0  0  0  0  0  0  0  0  0
   -1.3726  -54.0404  -20.9132 C   0  0  0  0  0  0  0  0  0  0  0  0
   -0.8002  -54.1766  -22.1562 C   0  0  0  0  0  0  0  0  0  0  0  0
   -1.3582  -55.4253  -23.2653 Cl  0  0  0  0  0  0  0  0  0  0  0  0
    0.2388  -53.2912  -22.5099 C   0  0  0  0  0  0  0  0  0  0  0  0
    0.6002  -52.3742  -21.6102 N   0  0  0  0  0  0  0  0  0  0  0  0
    0.8043  -53.4502  -23.7844 N   0  0  0  0  0  0  0  0  0  0  0  0
    0.6796  -54.4289  -24.2056 H   0  0  0  0  0  0  0  0  0  0  0  0
    1.5050  -52.5586  -24.6105 C   0  0  0  0  0  0  0  0  0  0  0  0
    2.6343  -51.9233  -24.1389 C   0  0  0  0  0  0  0  0  0  0  0  0
    3.3439  -51.0290  -24.9507 C   0  0  0  0  0  0  0  0  0  0  0  0
    2.9030  -50.7929  -26.2182 C   0  0  0  0  0  0  0  0  0  0  0  0
    1.7754  -51.4288  -26.6863 C   0  0  0  0  0  0  0  0  0  0  0  0
    1.0624  -52.3081  -25.9141 C   0  0  0  0  0  0  0  0  0  0  0  0
   -0.3397  -53.0930  -26.5125 S   0  0  0  0  0  0  0  0  0  0  0  0
   -1.5026  -52.8442  -25.5851 O   0  0  0  0  0  0  0  0  0  0  0  0
   -0.2007  -54.5795  -26.6874 O   0  0  0  0  0  0  0  0  0  0  0  0
   -0.8480  -52.4660  -28.1021 C   0  0  0  0  0  0  0  0  0  0  0  0
   -0.0258  -53.0635  -29.1974 C   0  0  0  0  0  0  0  0  0  0  0  0
   -2.3246  -52.5083  -28.3136 C   0  0  0  0  0  0  0  0  0  0  0  0
    2.6983  -50.1367  -19.3841 C   0  0  0  0  0  0  0  0  0  0  0  0
    3.5901  -49.1208  -19.6757 C   0  0  0  0  0  0  0  0  0  0  0  0
    3.2465  -48.0636  -20.4885 C   0  0  0  0  0  0  0  0  0  0  0  0
    1.9689  -48.0747  -20.9932 C   0  0  0  0  0  0  0  0  0  0  0  0
    1.0426  -49.0856  -20.7183 C   0  0  0  0  0  0  0  0  0  0  0  0
    1.3907  -50.1366  -19.9076 C   0  0  0  0  0  0  0  0  0  0  0  0
    4.1823  -47.0240  -20.7870 N   0  0  0  0  0  0  0  0  0  0  0  0
    5.4453  -47.0425  -20.1322 C   0  0  0  0  0  0  0  0  0  0  0  0
    6.5073  -46.1595  -20.7248 C   0  0  0  0  0  0  0  0  0  0  0  0
    6.0286  -44.8065  -21.1315 C   0  0  0  0  0  0  0  0  0  0  0  0
    4.5185  -44.7158  -21.2237 C   0  0  0  0  0  0  0  0  0  0  0  0
    3.8773  -45.9667  -21.7209 C   0  0  0  0  0  0  0  0  0  0  0  0
    6.5957  -44.2353  -22.2872 N   0  0  0  0  0  0  0  0  0  0  0  0
    7.9780  -44.3423  -22.5041 C   0  0  0  0  0  0  0  0  0  0  0  0
    8.4077  -43.3419  -23.5809 C   0  0  0  0  0  0  0  0  0  0  0  0
    7.4430  -43.4138  -24.6611 N   0  0  0  0  0  0  0  0  0  0  0  0
    7.5132  -44.6143  -25.4313 C   0  0  0  0  0  0  0  0  0  0  0  0
    6.1318  -43.0017  -24.2763 C   0  0  0  0  0  0  0  0  0  0  0  0
    6.0365  -43.0066  -22.7520 C   0  0  0  0  0  0  0  0  0  0  0  0
    3.5384  -50.8700  -17.2500 C   0  0  0  0  0  0  0  0  0  0  0  0
    3.1103  -51.1713  -18.5584 O   0  0  0  0  0  0  0  0  0  0  0  0
 43 44  1  0  0  0
 44 24  1  0  0  0
 24 25  2  0  0  0
 25 26  1  0  0  0
 26 27  2  0  0  0
 27 28  1  0  0  0
 28 29  2  0  0  0
 29  1  1  0  0  0
  1  3  1  0  0  0
  3  4  2  0  0  0
  4  5  1  0  0  0
  5  6  2  0  0  0
  6  7  1  0  0  0
  6  8  1  0  0  0
  8 10  1  0  0  0
 10 12  1  0  0  0
 12 13  2  0  0  0
 13 14  1  0  0  0
 14 15  2  0  0  0
 15 16  1  0  0  0
 16 17  2  0  0  0
 17 18  1  0  0  0
 18 19  2  0  0  0
 18 20  2  0  0  0
 18 21  1  0  0  0
 21 22  1  0  0  0
 21 23  1  0  0  0
  8  9  2  0  0  0
 26 30  1  0  0  0
 30 31  1  0  0  0
 31 32  1  0  0  0
 32 33  1  0  0  0
 33 34  1  0  0  0
 34 35  1  0  0  0
 33 36  1  0  0  0
 36 37  1  0  0  0
 37 38  1  0  0  0
 38 39  1  0  0  0
 39 40  1  0  0  0
 39 41  1  0  0  0
 41 42  1  0  0  0
 29 24  1  0  0  0
  9  3  1  0  0  0
 35 30  1  0  0  0
 42 36  1  0  0  0
 17 12  1  0  0  0
  1  2  1  0  0  0
 10 11  1  0  0  0
M  END
> <minimizedAffinity>
-7.87472

> <CNNscore>
0.2083857507

> <CNNaffinity>
7.2154741287

> <CNN_VS>
1.5036020279

> <CNNaffinity_variance>
0.2118999958

$$$$
[H]c1nc(N([H])c2c([H])c([H])c(N3C([H])([H])C([H])([H])C([H])(N4C([H])([H])C([H])([H])N(C([H])([H])[H])C([H])([H])C4([H])[H])C([H])([H])C3([H])[H])c([H])c2OC([H])([H])[H])nc(N([H])c2c([H])c([H])c([H])c([H])c2S(=O)(=O)C([H])(C([H])([H])[H])C([H])([H])[H])c1Cl


 44 48  0  0  0  0  0  0  0  0999 V2000
   -0.7018  -53.3848  -18.4576 N   0  0  0  0  0  0  0  0  0  0  0  0
   -0.5073  -54.4477  -18.3980 H   0  0  0  0  0  0  0  0  0  0  0  0
   -1.5862  -52.8549  -17.4810 C   0  0  0  0  0  0  0  0  0  0  0  0
   -2.8788  -53.1589  -17.3393 N   0  0  0  0  0  0  0  0  0  0  0  0
   -3.6575  -52.6212  -16.3922 C   0  0  0  0  0  0  0  0  0  0  0  0
   -3.1302  -51.7094  -15.5080 C   0  0  0  0  0  0  0  0  0  0  0  0
   -4.1391  -50.9921  -14.2557 Cl  0  0  0  0  0  0  0  0  0  0  0  0
   -1.7671  -51.3712  -15.6362 C   0  0  0  0  0  0  0  0  0  0  0  0
   -1.0748  -51.9615  -16.6125 N   0  0  0  0  0  0  0  0  0  0  0  0
   -1.2535  -50.4401  -14.7204 N   0  0  0  0  0  0  0  0  0  0  0  0
   -0.8718  -50.8725  -13.8158 H   0  0  0  0  0  0  0  0  0  0  0  0
   -1.1478  -49.0421  -14.7734 C   0  0  0  0  0  0  0  0  0  0  0  0
   -2.2712  -48.2730  -14.9914 C   0  0  0  0  0  0  0  0  0  0  0  0
   -2.1820  -46.8762  -15.0488 C   0  0  0  0  0  0  0  0  0  0  0  0
   -0.9660  -46.2833  -14.8860 C   0  0  0  0  0  0  0  0  0  0  0  0
    0.1538  -47.0538  -14.6683 C   0  0  0  0  0  0  0  0  0  0  0  0
    0.0953  -48.4216  -14.6074 C   0  0  0  0  0  0  0  0  0  0  0  0
    1.4995  -49.3671  -14.3343 S   0  0  0  0  0  0  0  0  0  0  0  0
    1.1925  -50.4704  -13.3531 O   0  0  0  0  0  0  0  0  0  0  0  0
    2.6806  -48.6000  -13.8091 O   0  0  0  0  0  0  0  0  0  0  0  0
    2.0727  -50.1822  -15.8125 C   0  0  0  0  0  0  0  0  0  0  0  0
    1.9647  -49.2760  -16.9957 C   0  0  0  0  0  0  0  0  0  0  0  0
    3.3907  -50.8614  -15.6441 C   0  0  0  0  0  0  0  0  0  0  0  0
   -0.2265  -53.1981  -20.8053 C   0  0  0  0  0  0  0  0  0  0  0  0
    0.3896  -52.5957  -21.8868 C   0  0  0  0  0  0  0  0  0  0  0  0
    1.2105  -51.5001  -21.7379 C   0  0  0  0  0  0  0  0  0  0  0  0
    1.3828  -51.0393  -20.4553 C   0  0  0  0  0  0  0  0  0  0  0  0
    0.7753  -51.6246  -19.3400 C   0  0  0  0  0  0  0  0  0  0  0  0
   -0.0416  -52.7163  -19.4947 C   0  0  0  0  0  0  0  0  0  0  0  0
    1.8348  -50.8833  -22.8672 N   0  0  0  0  0  0  0  0  0  0  0  0
    1.6152  -51.4488  -24.1541 C   0  0  0  0  0  0  0  0  0  0  0  0
    1.9872  -50.5841  -25.3257 C   0  0  0  0  0  0  0  0  0  0  0  0
    3.2802  -49.8570  -25.1698 C   0  0  0  0  0  0  0  0  0  0  0  0
    3.7736  -49.8267  -23.7371 C   0  0  0  0  0  0  0  0  0  0  0  0
    2.6766  -49.7186  -22.7331 C   0  0  0  0  0  0  0  0  0  0  0  0
    3.3684  -48.5612  -25.7147 N   0  0  0  0  0  0  0  0  0  0  0  0
    3.5259  -48.4032  -27.1002 C   0  0  0  0  0  0  0  0  0  0  0  0
    3.9800  -46.9729  -27.4054 C   0  0  0  0  0  0  0  0  0  0  0  0
    3.1711  -46.0726  -26.6069 N   0  0  0  0  0  0  0  0  0  0  0  0
    1.8119  -45.9709  -27.0331 C   0  0  0  0  0  0  0  0  0  0  0  0
    3.3684  -46.2308  -25.2022 C   0  0  0  0  0  0  0  0  0  0  0  0
    4.0515  -47.5722  -24.9442 C   0  0  0  0  0  0  0  0  0  0  0  0
   -1.1242  -54.8331  -22.3280 C   0  0  0  0  0  0  0  0  0  0  0  0
   -1.0405  -54.2982  -21.0268 O   0  0  0  0  0  0  0  0  0  0  0  0
 43 44  1  0  0  0
 44 24  1  0  0  0
 24 25  2  0  0  0
 25 26  1  0  0  0
 26 27  2  0  0  0
 27 28  1  0  0  0
 28 29  2  0  0  0
 29  1  1  0  0  0
  1  3  1  0  0  0
  3  4  2  0  0  0
  4  5  1  0  0  0
  5  6  2  0  0  0
  6  7  1  0  0  0
  6  8  1  0  0  0
  8 10  1  0  0  0
 10 12  1  0  0  0
 12 13  2  0  0  0
 13 14  1  0  0  0
 14 15  2  0  0  0
 15 16  1  0  0  0
 16 17  2  0  0  0
 17 18  1  0  0  0
 18 19  2  0  0  0
 18 20  2  0  0  0
 18 21  1  0  0  0
 21 22  1  0  0  0
 21 23  1  0  0  0
  8  9  2  0  0  0
 26 30  1  0  0  0
 30 31  1  0  0  0
 31 32  1  0  0  0
 32 33  1  0  0  0
 33 34  1  0  0  0
 34 35  1  0  0  0
 33 36  1  0  0  0
 36 37  1  0  0  0
 37 38  1  0  0  0
 38 39  1  0  0  0
 39 40  1  0  0  0
 39 41  1  0  0  0
 41 42  1  0  0  0
 29 24  1  0  0  0
  9  3  1  0  0  0
 35 30  1  0  0  0
 42 36  1  0  0  0
 17 12  1  0  0  0
  1  2  1  0  0  0
 10 11  1  0  0  0
M  END
> <minimizedAffinity>
-7.52268

> <CNNscore>
0.1963925809

> <CNNaffinity>
7.2322874069

> <CNN_VS>
1.4203675985

> <CNNaffinity_variance>
0.0777630433

$$$$
[H]c1nc(N([H])c2c([H])c([H])c(N3C([H])([H])C([H])([H])C([H])(N4C([H])([H])C([H])([H])N(C([H])([H])[H])C([H])([H])C4([H])[H])C([H])([H])C3([H])[H])c([H])c2OC([H])([H])[H])nc(N([H])c2c([H])c([H])c([H])c([H])c2S(=O)(=O)C([H])(C([H])([H])[H])C([H])([H])[H])c1Cl


 44 48  0  0  0  0  0  0  0  0999 V2000
   -0.9887  -53.4150  -18.6686 N   0  0  0  0  0  0  0  0  0  0  0  0
   -1.2272  -54.4657  -18.7696 H   0  0  0  0  0  0  0  0  0  0  0  0
   -1.4766  -52.7723  -17.5001 C   0  0  0  0  0  0  0  0  0  0  0  0
   -2.7381  -52.7824  -17.0625 N   0  0  0  0  0  0  0  0  0  0  0  0
   -3.1311  -52.1540  -15.9475 C   0  0  0  0  0  0  0  0  0  0  0  0
   -2.2152  -51.4565  -15.1953 C   0  0  0  0  0  0  0  0  0  0  0  0
   -2.7136  -50.6241  -13.7258 Cl  0  0  0  0  0  0  0  0  0  0  0  0
   -0.8758  -51.4302  -15.6358 C   0  0  0  0  0  0  0  0  0  0  0  0
   -0.5836  -52.0877  -16.7598 N   0  0  0  0  0  0  0  0  0  0  0  0
    0.0390  -50.7132  -14.8494 N   0  0  0  0  0  0  0  0  0  0  0  0
   -0.2073  -49.6775  -14.7163 H   0  0  0  0  0  0  0  0  0  0  0  0
    1.2207  -51.1061  -14.2032 C   0  0  0  0  0  0  0  0  0  0  0  0
    1.2019  -52.1553  -13.3087 C   0  0  0  0  0  0  0  0  0  0  0  0
    2.3728  -52.5586  -12.6540 C   0  0  0  0  0  0  0  0  0  0  0  0
    3.5365  -51.8985  -12.9126 C   0  0  0  0  0  0  0  0  0  0  0  0
    3.5522  -50.8516  -13.8062 C   0  0  0  0  0  0  0  0  0  0  0  0
    2.4220  -50.4364  -14.4605 C   0  0  0  0  0  0  0  0  0  0  0  0
    2.4586  -49.1311  -15.5718 S   0  0  0  0  0  0  0  0  0  0  0  0
    3.6960  -48.2992  -15.3459 O   0  0  0  0  0  0  0  0  0  0  0  0
    1.2693  -48.2144  -15.5029 O   0  0  0  0  0  0  0  0  0  0  0  0
    2.5481  -49.6783  -17.2661 C   0  0  0  0  0  0  0  0  0  0  0  0
    2.6359  -48.5132  -18.1976 C   0  0  0  0  0  0  0  0  0  0  0  0
    3.5563  -50.7553  -17.4908 C   0  0  0  0  0  0  0  0  0  0  0  0
   -0.3777  -53.4516  -20.9919 C   0  0  0  0  0  0  0  0  0  0  0  0
    0.3300  -52.9762  -22.0806 C   0  0  0  0  0  0  0  0  0  0  0  0
    1.2048  -51.9181  -21.9728 C   0  0  0  0  0  0  0  0  0  0  0  0
    1.3347  -51.3615  -20.7236 C   0  0  0  0  0  0  0  0  0  0  0  0
    0.6348  -51.8176  -19.6022 C   0  0  0  0  0  0  0  0  0  0  0  0
   -0.2354  -52.8725  -19.7158 C   0  0  0  0  0  0  0  0  0  0  0  0
    1.9241  -51.4328  -23.1097 N   0  0  0  0  0  0  0  0  0  0  0  0
    1.3667  -51.6409  -24.4020 C   0  0  0  0  0  0  0  0  0  0  0  0
    1.9601  -50.8232  -25.5147 C   0  0  0  0  0  0  0  0  0  0  0  0
    3.4478  -50.7212  -25.4796 C   0  0  0  0  0  0  0  0  0  0  0  0
    4.0380  -51.1293  -24.1446 C   0  0  0  0  0  0  0  0  0  0  0  0
    3.1891  -50.7503  -22.9789 C   0  0  0  0  0  0  0  0  0  0  0  0
    4.0267  -49.5033  -25.8861 N   0  0  0  0  0  0  0  0  0  0  0  0
    5.2808  -49.1306  -25.3784 C   0  0  0  0  0  0  0  0  0  0  0  0
    5.5197  -47.6413  -25.6428 C   0  0  0  0  0  0  0  0  0  0  0  0
    5.1206  -47.3654  -27.0092 N   0  0  0  0  0  0  0  0  0  0  0  0
    5.9956  -47.9106  -27.9974 C   0  0  0  0  0  0  0  0  0  0  0  0
    3.7262  -47.5627  -27.2414 C   0  0  0  0  0  0  0  0  0  0  0  0
    3.1463  -48.4005  -26.1038 C   0  0  0  0  0  0  0  0  0  0  0  0
   -1.4850  -54.9886  -22.4782 C   0  0  0  0  0  0  0  0  0  0  0  0
   -1.2419  -54.5206  -21.1713 O   0  0  0  0  0  0  0  0  0  0  0  0
 43 44  1  0  0  0
 44 24  1  0  0  0
 24 25  2  0  0  0
 25 26  1  0  0  0
 26 27  2  0  0  0
 27 28  1  0  0  0
 28 29  2  0  0  0
 29  1  1  0  0  0
  1  3  1  0  0  0
  3  4  2  0  0  0
  4  5  1  0  0  0
  5  6  2  0  0  0
  6  7  1  0  0  0
  6  8  1  0  0  0
  8 10  1  0  0  0
 10 12  1  0  0  0
 12 13  2  0  0  0
 13 14  1  0  0  0
 14 15  2  0  0  0
 15 16  1  0  0  0
 16 17  2  0  0  0
 17 18  1  0  0  0
 18 19  2  0  0  0
 18 20  2  0  0  0
 18 21  1  0  0  0
 21 22  1  0  0  0
 21 23  1  0  0  0
  8  9  2  0  0  0
 26 30  1  0  0  0
 30 31  1  0  0  0
 31 32  1  0  0  0
 32 33  1  0  0  0
 33 34  1  0  0  0
 34 35  1  0  0  0
 33 36  1  0  0  0
 36 37  1  0  0  0
 37 38  1  0  0  0
 38 39  1  0  0  0
 39 40  1  0  0  0
 39 41  1  0  0  0
 41 42  1  0  0  0
 29 24  1  0  0  0
  9  3  1  0  0  0
 35 30  1  0  0  0
 42 36  1  0  0  0
 17 12  1  0  0  0
  1  2  1  0  0  0
 10 11  1  0  0  0
M  END
> <minimizedAffinity>
-7.65412

> <CNNscore>
0.1802893877

> <CNNaffinity>
7.2262201309

> <CNN_VS>
1.3028107882

> <CNNaffinity_variance>
0.0984627083

$$$$
[H]c1nc(N([H])c2c([H])c([H])c(N3C([H])([H])C([H])([H])C([H])(N4C([H])([H])C([H])([H])N(C([H])([H])[H])C([H])([H])C4([H])[H])C([H])([H])C3([H])[H])c([H])c2OC([H])([H])[H])nc(N([H])c2c([H])c([H])c([H])c([H])c2S(=O)(=O)C([H])(C([H])([H])[H])C([H])([H])[H])c1Cl


 44 48  0  0  0  0  0  0  0  0999 V2000
    0.3054  -51.3542  -19.5439 N   0  0  0  0  0  0  0  0  0  0  0  0
   -0.0969  -51.5475  -18.5580 H   0  0  0  0  0  0  0  0  0  0  0  0
   -0.0639  -52.2733  -20.5614 C   0  0  0  0  0  0  0  0  0  0  0  0
   -0.9347  -53.2782  -20.4387 N   0  0  0  0  0  0  0  0  0  0  0  0
   -1.2389  -54.1097  -21.4430 C   0  0  0  0  0  0  0  0  0  0  0  0
   -0.6429  -53.9468  -22.6716 C   0  0  0  0  0  0  0  0  0  0  0  0
   -1.0309  -55.0305  -24.0042 Cl  0  0  0  0  0  0  0  0  0  0  0  0
    0.2808  -52.8927  -22.8275 C   0  0  0  0  0  0  0  0  0  0  0  0
    0.5170  -52.1182  -21.7667 N   0  0  0  0  0  0  0  0  0  0  0  0
    0.8731  -52.7471  -24.0913 N   0  0  0  0  0  0  0  0  0  0  0  0
    0.6463  -53.5372  -24.7808 H   0  0  0  0  0  0  0  0  0  0  0  0
    1.7105  -51.7526  -24.6188 C   0  0  0  0  0  0  0  0  0  0  0  0
    2.2751  -50.8117  -23.7839 C   0  0  0  0  0  0  0  0  0  0  0  0
    3.1117  -49.8113  -24.2952 C   0  0  0  0  0  0  0  0  0  0  0  0
    3.3625  -49.7786  -25.6342 C   0  0  0  0  0  0  0  0  0  0  0  0
    2.7976  -50.7194  -26.4652 C   0  0  0  0  0  0  0  0  0  0  0  0
    1.9758  -51.7087  -25.9920 C   0  0  0  0  0  0  0  0  0  0  0  0
    1.2808  -52.8740  -27.0404 S   0  0  0  0  0  0  0  0  0  0  0  0
    1.0582  -54.1664  -26.2958 O   0  0  0  0  0  0  0  0  0  0  0  0
    2.0966  -53.1831  -28.2645 O   0  0  0  0  0  0  0  0  0  0  0  0
   -0.3235  -52.3816  -27.6420 C   0  0  0  0  0  0  0  0  0  0  0  0
   -0.6440  -53.0709  -28.9283 C   0  0  0  0  0  0  0  0  0  0  0  0
   -1.3918  -52.4381  -26.6015 C   0  0  0  0  0  0  0  0  0  0  0  0
    2.1967  -50.1128  -18.7351 C   0  0  0  0  0  0  0  0  0  0  0  0
    3.0531  -49.0275  -18.7631 C   0  0  0  0  0  0  0  0  0  0  0  0
    2.9012  -48.0055  -19.6736 C   0  0  0  0  0  0  0  0  0  0  0  0
    1.8519  -48.1247  -20.5521 C   0  0  0  0  0  0  0  0  0  0  0  0
    0.9677  -49.2080  -20.5510 C   0  0  0  0  0  0  0  0  0  0  0  0
    1.1240  -50.2234  -19.6413 C   0  0  0  0  0  0  0  0  0  0  0  0
    3.7996  -46.8929  -19.6950 N   0  0  0  0  0  0  0  0  0  0  0  0
    3.7884  -46.0363  -20.8310 C   0  0  0  0  0  0  0  0  0  0  0  0
    4.4745  -44.7098  -20.6625 C   0  0  0  0  0  0  0  0  0  0  0  0
    5.7761  -44.7763  -19.9369 C   0  0  0  0  0  0  0  0  0  0  0  0
    5.9706  -46.0794  -19.1878 C   0  0  0  0  0  0  0  0  0  0  0  0
    4.7101  -46.6251  -18.6076 C   0  0  0  0  0  0  0  0  0  0  0  0
    6.1027  -43.7027  -19.0857 N   0  0  0  0  0  0  0  0  0  0  0  0
    5.1488  -42.7042  -18.8354 C   0  0  0  0  0  0  0  0  0  0  0  0
    5.8356  -41.4802  -18.2230 C   0  0  0  0  0  0  0  0  0  0  0  0
    6.7535  -41.9519  -17.2044 N   0  0  0  0  0  0  0  0  0  0  0  0
    6.1172  -42.4607  -16.0316 C   0  0  0  0  0  0  0  0  0  0  0  0
    7.8162  -42.7489  -17.7266 C   0  0  0  0  0  0  0  0  0  0  0  0
    7.4437  -43.2148  -19.1325 C   0  0  0  0  0  0  0  0  0  0  0  0
    3.2980  -50.8587  -16.7280 C   0  0  0  0  0  0  0  0  0  0  0  0
    2.4075  -51.1065  -17.7918 O   0  0  0  0  0  0  0  0  0  0  0  0
 43 44  1  0  0  0
 44 24  1  0  0  0
 24 25  2  0  0  0
 25 26  1  0  0  0
 26 27  2  0  0  0
 27 28  1  0  0  0
 28 29  2  0  0  0
 29  1  1  0  0  0
  1  3  1  0  0  0
  3  4  2  0  0  0
  4  5  1  0  0  0
  5  6  2  0  0  0
  6  7  1  0  0  0
  6  8  1  0  0  0
  8 10  1  0  0  0
 10 12  1  0  0  0
 12 13  2  0  0  0
 13 14  1  0  0  0
 14 15  2  0  0  0
 15 16  1  0  0  0
 16 17  2  0  0  0
 17 18  1  0  0  0
 18 19  2  0  0  0
 18 20  2  0  0  0
 18 21  1  0  0  0
 21 22  1  0  0  0
 21 23  1  0  0  0
  8  9  2  0  0  0
 26 30  1  0  0  0
 30 31  1  0  0  0
 31 32  1  0  0  0
 32 33  1  0  0  0
 33 34  1  0  0  0
 34 35  1  0  0  0
 33 36  1  0  0  0
 36 37  1  0  0  0
 37 38  1  0  0  0
 38 39  1  0  0  0
 39 40  1  0  0  0
 39 41  1  0  0  0
 41 42  1  0  0  0
 29 24  1  0  0  0
  9  3  1  0  0  0
 35 30  1  0  0  0
 42 36  1  0  0  0
 17 12  1  0  0  0
  1  2  1  0  0  0
 10 11  1  0  0  0
M  END
> <minimizedAffinity>
-7.47717

> <CNNscore>
0.1474294811

> <CNNaffinity>
7.1526131630

> <CNN_VS>
1.0545060635

> <CNNaffinity_variance>
0.1357228905

$$$$
[H]c1nc(N([H])c2c([H])c([H])c(N3C([H])([H])C([H])([H])C([H])(N4C([H])([H])C([H])([H])N(C([H])([H])[H])C([H])([H])C4([H])[H])C([H])([H])C3([H])[H])c([H])c2OC([H])([H])[H])nc(N([H])c2c([H])c([H])c([H])c([H])c2S(=O)(=O)C([H])(C([H])([H])[H])C([H])([H])[H])c1Cl


 44 48  0  0  0  0  0  0  0  0999 V2000
    0.6661  -53.2010  -23.2256 N   0  0  0  0  0  0  0  0  0  0  0  0
    0.4937  -54.0971  -23.8075 H   0  0  0  0  0  0  0  0  0  0  0  0
    0.0972  -53.1808  -21.9247 C   0  0  0  0  0  0  0  0  0  0  0  0
   -0.7440  -54.0854  -21.4173 N   0  0  0  0  0  0  0  0  0  0  0  0
   -1.2434  -54.0060  -20.1777 C   0  0  0  0  0  0  0  0  0  0  0  0
   -0.8923  -52.9546  -19.3637 C   0  0  0  0  0  0  0  0  0  0  0  0
   -1.5391  -52.8338  -17.7304 Cl  0  0  0  0  0  0  0  0  0  0  0  0
   -0.0052  -51.9854  -19.8758 C   0  0  0  0  0  0  0  0  0  0  0  0
    0.4378  -52.1532  -21.1234 N   0  0  0  0  0  0  0  0  0  0  0  0
    0.3385  -50.9241  -19.0244 N   0  0  0  0  0  0  0  0  0  0  0  0
   -0.1508  -50.9453  -18.0699 H   0  0  0  0  0  0  0  0  0  0  0  0
    1.2090  -49.8371  -19.1951 C   0  0  0  0  0  0  0  0  0  0  0  0
    1.5724  -49.4368  -20.4636 C   0  0  0  0  0  0  0  0  0  0  0  0
    2.4420  -48.3546  -20.6508 C   0  0  0  0  0  0  0  0  0  0  0  0
    2.9272  -47.6988  -19.5593 C   0  0  0  0  0  0  0  0  0  0  0  0
    2.5624  -48.1007  -18.2942 C   0  0  0  0  0  0  0  0  0  0  0  0
    1.7136  -49.1555  -18.0822 C   0  0  0  0  0  0  0  0  0  0  0  0
    1.2681  -49.6428  -16.4998 S   0  0  0  0  0  0  0  0  0  0  0  0
    2.2630  -49.1102  -15.4994 O   0  0  0  0  0  0  0  0  0  0  0  0
    1.1711  -51.1301  -16.3048 O   0  0  0  0  0  0  0  0  0  0  0  0
   -0.3135  -48.9873  -16.0027 C   0  0  0  0  0  0  0  0  0  0  0  0
   -1.1929  -50.0693  -15.4655 C   0  0  0  0  0  0  0  0  0  0  0  0
   -0.2101  -47.7649  -15.1529 C   0  0  0  0  0  0  0  0  0  0  0  0
    0.8399  -51.5415  -24.9542 C   0  0  0  0  0  0  0  0  0  0  0  0
    1.5217  -50.5533  -25.6403 C   0  0  0  0  0  0  0  0  0  0  0  0
    2.8008  -50.1787  -25.2940 C   0  0  0  0  0  0  0  0  0  0  0  0
    3.3611  -50.8413  -24.2290 C   0  0  0  0  0  0  0  0  0  0  0  0
    2.7000  -51.8449  -23.5140 C   0  0  0  0  0  0  0  0  0  0  0  0
    1.4255  -52.2140  -23.8639 C   0  0  0  0  0  0  0  0  0  0  0  0
    3.4905  -49.1495  -26.0085 N   0  0  0  0  0  0  0  0  0  0  0  0
    3.9465  -49.4304  -27.3266 C   0  0  0  0  0  0  0  0  0  0  0  0
    4.3398  -48.2398  -28.1553 C   0  0  0  0  0  0  0  0  0  0  0  0
    5.1322  -47.2115  -27.4206 C   0  0  0  0  0  0  0  0  0  0  0  0
    5.0637  -47.3752  -25.9154 C   0  0  0  0  0  0  0  0  0  0  0  0
    3.7368  -47.8508  -25.4292 C   0  0  0  0  0  0  0  0  0  0  0  0
    4.9076  -45.8601  -27.7476 N   0  0  0  0  0  0  0  0  0  0  0  0
    5.2453  -44.8599  -26.8231 C   0  0  0  0  0  0  0  0  0  0  0  0
    4.5699  -43.5443  -27.2206 C   0  0  0  0  0  0  0  0  0  0  0  0
    4.7432  -43.3728  -28.6500 N   0  0  0  0  0  0  0  0  0  0  0  0
    6.0804  -43.0657  -29.0462 C   0  0  0  0  0  0  0  0  0  0  0  0
    4.0837  -44.3748  -29.4234 C   0  0  0  0  0  0  0  0  0  0  0  0
    3.7448  -45.5580  -28.5191 C   0  0  0  0  0  0  0  0  0  0  0  0
   -0.6368  -52.4393  -26.6309 C   0  0  0  0  0  0  0  0  0  0  0  0
   -0.4457  -51.8691  -25.3563 O   0  0  0  0  0  0  0  0  0  0  0  0
 43 44  1  0  0  0
 44 24  1  0  0  0
 24 25  2  0  0  0
 25 26  1  0  0  0
 26 27  2  0  0  0
 27 28  1  0  0  0
 28 29  2  0  0  0
 29  1  1  0  0  0
  1  3  1  0  0  0
  3  4  2  0  0  0
  4  5  1  0  0  0
  5  6  2  0  0  0
  6  7  1  0  0  0
  6  8  1  0  0  0
  8 10  1  0  0  0
 10 12  1  0  0  0
 12 13  2  0  0  0
 13 14  1  0  0  0
 14 15  2  0  0  0
 15 16  1  0  0  0
 16 17  2  0  0  0
 17 18  1  0  0  0
 18 19  2  0  0  0
 18 20  2  0  0  0
 18 21  1  0  0  0
 21 22  1  0  0  0
 21 23  1  0  0  0
  8  9  2  0  0  0
 26 30  1  0  0  0
 30 31  1  0  0  0
 31 32  1  0  0  0
 32 33  1  0  0  0
 33 34  1  0  0  0
 34 35  1  0  0  0
 33 36  1  0  0  0
 36 37  1  0  0  0
 37 38  1  0  0  0
 38 39  1  0  0  0
 39 40  1  0  0  0
 39 41  1  0  0  0
 41 42  1  0  0  0
 29 24  1  0  0  0
  9  3  1  0  0  0
 35 30  1  0  0  0
 42 36  1  0  0  0
 17 12  1  0  0  0
  1  2  1  0  0  0
 10 11  1  0  0  0
M  END
> <minimizedAffinity>
-6.84443

> <CNNscore>
0.1430594325

> <CNNaffinity>
7.1469674110

> <CNN_VS>
1.0224411488

> <CNNaffinity_variance>
0.1832085103

$$$$
[H]c1nc(N([H])c2c([H])c([H])c(N3C([H])([H])C([H])([H])C([H])(N4C([H])([H])C([H])([H])N(C([H])([H])[H])C([H])([H])C4([H])[H])C([H])([H])C3([H])[H])c([H])c2OC([H])([H])[H])nc(N([H])c2c([H])c([H])c([H])c([H])c2S(=O)(=O)C([H])(C([H])([H])[H])C([H])([H])[H])c1Cl


 44 48  0  0  0  0  0  0  0  0999 V2000
    0.8903  -51.0404  -19.2508 N   0  0  0  0  0  0  0  0  0  0  0  0
    0.2713  -50.5682  -18.4991 H   0  0  0  0  0  0  0  0  0  0  0  0
    0.2674  -52.0520  -20.0288 C   0  0  0  0  0  0  0  0  0  0  0  0
   -0.6968  -52.8804  -19.6198 N   0  0  0  0  0  0  0  0  0  0  0  0
   -1.2430  -53.8140  -20.4088 C   0  0  0  0  0  0  0  0  0  0  0  0
   -0.8117  -53.9511  -21.7074 C   0  0  0  0  0  0  0  0  0  0  0  0
   -1.5184  -55.1733  -22.7598 Cl  0  0  0  0  0  0  0  0  0  0  0  0
    0.2059  -53.0883  -22.1642 C   0  0  0  0  0  0  0  0  0  0  0  0
    0.6861  -52.1905  -21.3015 N   0  0  0  0  0  0  0  0  0  0  0  0
    0.6265  -53.2476  -23.4935 N   0  0  0  0  0  0  0  0  0  0  0  0
    0.3788  -54.1978  -23.9258 H   0  0  0  0  0  0  0  0  0  0  0  0
    1.3137  -52.3871  -24.3628 C   0  0  0  0  0  0  0  0  0  0  0  0
    2.2887  -51.5448  -23.8718 C   0  0  0  0  0  0  0  0  0  0  0  0
    2.9825  -50.6784  -24.7264 C   0  0  0  0  0  0  0  0  0  0  0  0
    2.6812  -50.6777  -26.0553 C   0  0  0  0  0  0  0  0  0  0  0  0
    1.7075  -51.5199  -26.5426 C   0  0  0  0  0  0  0  0  0  0  0  0
    1.0135  -52.3773  -25.7295 C   0  0  0  0  0  0  0  0  0  0  0  0
   -0.1959  -53.4211  -26.3524 S   0  0  0  0  0  0  0  0  0  0  0  0
   -1.5604  -52.8233  -26.1176 O   0  0  0  0  0  0  0  0  0  0  0  0
   -0.1932  -54.8053  -25.7665 O   0  0  0  0  0  0  0  0  0  0  0  0
   -0.0641  -53.6439  -28.1162 C   0  0  0  0  0  0  0  0  0  0  0  0
   -0.7797  -52.5534  -28.8452 C   0  0  0  0  0  0  0  0  0  0  0  0
    1.3282  -53.9170  -28.5787 C   0  0  0  0  0  0  0  0  0  0  0  0
    2.5365  -49.7209  -20.4002 C   0  0  0  0  0  0  0  0  0  0  0  0
    3.8126  -49.2086  -20.5461 C   0  0  0  0  0  0  0  0  0  0  0  0
    4.8181  -49.4971  -19.6504 C   0  0  0  0  0  0  0  0  0  0  0  0
    4.4824  -50.3217  -18.6043 C   0  0  0  0  0  0  0  0  0  0  0  0
    3.2026  -50.8567  -18.4273 C   0  0  0  0  0  0  0  0  0  0  0  0
    2.2047  -50.5658  -19.3232 C   0  0  0  0  0  0  0  0  0  0  0  0
    6.1313  -48.9536  -19.8106 N   0  0  0  0  0  0  0  0  0  0  0  0
    6.9553  -49.4709  -20.8487 C   0  0  0  0  0  0  0  0  0  0  0  0
    8.1622  -48.6484  -21.2032 C   0  0  0  0  0  0  0  0  0  0  0  0
    8.8996  -48.0973  -20.0294 C   0  0  0  0  0  0  0  0  0  0  0  0
    8.0937  -48.1481  -18.7468 C   0  0  0  0  0  0  0  0  0  0  0  0
    6.6361  -47.9099  -18.9511 C   0  0  0  0  0  0  0  0  0  0  0  0
    9.4729  -46.8178  -20.1628 N   0  0  0  0  0  0  0  0  0  0  0  0
    9.6629  -46.2755  -21.4430 C   0  0  0  0  0  0  0  0  0  0  0  0
   10.6284  -45.0899  -21.3602 C   0  0  0  0  0  0  0  0  0  0  0  0
   10.2374  -44.2800  -20.2228 N   0  0  0  0  0  0  0  0  0  0  0  0
    9.0170  -43.5615  -20.4060 C   0  0  0  0  0  0  0  0  0  0  0  0
   10.3752  -44.9564  -18.9735 C   0  0  0  0  0  0  0  0  0  0  0  0
   10.4929  -46.4572  -19.2310 C   0  0  0  0  0  0  0  0  0  0  0  0
    1.2586  -48.0311  -21.5445 C   0  0  0  0  0  0  0  0  0  0  0  0
    1.5718  -49.3897  -21.3391 O   0  0  0  0  0  0  0  0  0  0  0  0
 43 44  1  0  0  0
 44 24  1  0  0  0
 24 25  2  0  0  0
 25 26  1  0  0  0
 26 27  2  0  0  0
 27 28  1  0  0  0
 28 29  2  0  0  0
 29  1  1  0  0  0
  1  3  1  0  0  0
  3  4  2  0  0  0
  4  5  1  0  0  0
  5  6  2  0  0  0
  6  7  1  0  0  0
  6  8  1  0  0  0
  8 10  1  0  0  0
 10 12  1  0  0  0
 12 13  2  0  0  0
 13 14  1  0  0  0
 14 15  2  0  0  0
 15 16  1  0  0  0
 16 17  2  0  0  0
 17 18  1  0  0  0
 18 19  2  0  0  0
 18 20  2  0  0  0
 18 21  1  0  0  0
 21 22  1  0  0  0
 21 23  1  0  0  0
  8  9  2  0  0  0
 26 30  1  0  0  0
 30 31  1  0  0  0
 31 32  1  0  0  0
 32 33  1  0  0  0
 33 34  1  0  0  0
 34 35  1  0  0  0
 33 36  1  0  0  0
 36 37  1  0  0  0
 37 38  1  0  0  0
 38 39  1  0  0  0
 39 40  1  0  0  0
 39 41  1  0  0  0
 41 42  1  0  0  0
 29 24  1  0  0  0
  9  3  1  0  0  0
 35 30  1  0  0  0
 42 36  1  0  0  0
 17 12  1  0  0  0
  1  2  1  0  0  0
 10 11  1  0  0  0
M  END
> <minimizedAffinity>
-7.56347

> <CNNscore>
0.1353183091

> <CNNaffinity>
6.9324989319

> <CNN_VS>
0.9380940199

> <CNNaffinity_variance>
0.1771405190

$$$$
[H]c1nc(N([H])c2c([H])c([H])c(N3C([H])([H])C([H])([H])C([H])(N4C([H])([H])C([H])([H])N(C([H])([H])[H])C([H])([H])C4([H])[H])C([H])([H])C3([H])[H])c([H])c2OC([H])([H])[H])nc(N([H])c2c([H])c([H])c([H])c([H])c2S(=O)(=O)C([H])(C([H])([H])[H])C([H])([H])[H])c1Cl


 44 48  0  0  0  0  0  0  0  0999 V2000
    3.3196  -50.8514  -21.3831 N   0  0  0  0  0  0  0  0  0  0  0  0
    4.1799  -51.1452  -20.7960 H   0  0  0  0  0  0  0  0  0  0  0  0
    2.1155  -51.5585  -21.1255 C   0  0  0  0  0  0  0  0  0  0  0  0
    1.6398  -51.8951  -19.9239 N   0  0  0  0  0  0  0  0  0  0  0  0
    0.4925  -52.5634  -19.7519 C   0  0  0  0  0  0  0  0  0  0  0  0
   -0.2544  -52.9349  -20.8453 C   0  0  0  0  0  0  0  0  0  0  0  0
   -1.7660  -53.8141  -20.6384 Cl  0  0  0  0  0  0  0  0  0  0  0  0
    0.2260  -52.5915  -22.1259 C   0  0  0  0  0  0  0  0  0  0  0  0
    1.3802  -51.9248  -22.1929 N   0  0  0  0  0  0  0  0  0  0  0  0
   -0.5558  -52.9805  -23.2244 N   0  0  0  0  0  0  0  0  0  0  0  0
   -1.3106  -52.2714  -23.5045 H   0  0  0  0  0  0  0  0  0  0  0  0
   -0.5291  -54.1318  -24.0259 C   0  0  0  0  0  0  0  0  0  0  0  0
   -0.9208  -55.3459  -23.5026 C   0  0  0  0  0  0  0  0  0  0  0  0
   -0.8982  -56.5048  -24.2892 C   0  0  0  0  0  0  0  0  0  0  0  0
   -0.4824  -56.4180  -25.5839 C   0  0  0  0  0  0  0  0  0  0  0  0
   -0.0922  -55.2045  -26.1035 C   0  0  0  0  0  0  0  0  0  0  0  0
   -0.1045  -54.0554  -25.3569 C   0  0  0  0  0  0  0  0  0  0  0  0
    0.3837  -52.5512  -26.0195 S   0  0  0  0  0  0  0  0  0  0  0  0
    1.8471  -52.6001  -26.3805 O   0  0  0  0  0  0  0  0  0  0  0  0
    0.1722  -51.3688  -25.1158 O   0  0  0  0  0  0  0  0  0  0  0  0
   -0.4735  -52.1606  -27.5331 C   0  0  0  0  0  0  0  0  0  0  0  0
    0.1954  -52.8034  -28.7044 C   0  0  0  0  0  0  0  0  0  0  0  0
   -1.9499  -52.3612  -27.4491 C   0  0  0  0  0  0  0  0  0  0  0  0
    4.1031  -50.1622  -23.5472 C   0  0  0  0  0  0  0  0  0  0  0  0
    4.3612  -49.2024  -24.5087 C   0  0  0  0  0  0  0  0  0  0  0  0
    4.0907  -47.8691  -24.2953 C   0  0  0  0  0  0  0  0  0  0  0  0
    3.5502  -47.5461  -23.0744 C   0  0  0  0  0  0  0  0  0  0  0  0
    3.2770  -48.4911  -22.0804 C   0  0  0  0  0  0  0  0  0  0  0  0
    3.5488  -49.8183  -22.2988 C   0  0  0  0  0  0  0  0  0  0  0  0
    4.3564  -46.8889  -25.3023 N   0  0  0  0  0  0  0  0  0  0  0  0
    3.2524  -46.2858  -25.9670 C   0  0  0  0  0  0  0  0  0  0  0  0
    3.5546  -45.0356  -26.7444 C   0  0  0  0  0  0  0  0  0  0  0  0
    4.8141  -45.0941  -27.5415 C   0  0  0  0  0  0  0  0  0  0  0  0
    5.7263  -46.2305  -27.1248 C   0  0  0  0  0  0  0  0  0  0  0  0
    5.7012  -46.5059  -25.6596 C   0  0  0  0  0  0  0  0  0  0  0  0
    5.5716  -43.9117  -27.6501 N   0  0  0  0  0  0  0  0  0  0  0  0
    6.9118  -43.9845  -28.0599 C   0  0  0  0  0  0  0  0  0  0  0  0
    7.6205  -42.6668  -27.7341 C   0  0  0  0  0  0  0  0  0  0  0  0
    6.7433  -41.5830  -28.1321 N   0  0  0  0  0  0  0  0  0  0  0  0
    6.6128  -41.4226  -29.5451 C   0  0  0  0  0  0  0  0  0  0  0  0
    5.5250  -41.5404  -27.3897 C   0  0  0  0  0  0  0  0  0  0  0  0
    5.3208  -42.8834  -26.6918 C   0  0  0  0  0  0  0  0  0  0  0  0
    5.6943  -51.8144  -24.2791 C   0  0  0  0  0  0  0  0  0  0  0  0
    4.3999  -51.4868  -23.8284 O   0  0  0  0  0  0  0  0  0  0  0  0
 43 44  1  0  0  0
 44 24  1  0  0  0
 24 25  2  0  0  0
 25 26  1  0  0  0
 26 27  2  0  0  0
 27 28  1  0  0  0
 28 29  2  0  0  0
 29  1  1  0  0  0
  1  3  1  0  0  0
  3  4  2  0  0  0
  4  5  1  0  0  0
  5  6  2  0  0  0
  6  7  1  0  0  0
  6  8  1  0  0  0
  8 10  1  0  0  0
 10 12  1  0  0  0
 12 13  2  0  0  0
 13 14  1  0  0  0
 14 15  2  0  0  0
 15 16  1  0  0  0
 16 17  2  0  0  0
 17 18  1  0  0  0
 18 19  2  0  0  0
 18 20  2  0  0  0
 18 21  1  0  0  0
 21 22  1  0  0  0
 21 23  1  0  0  0
  8  9  2  0  0  0
 26 30  1  0  0  0
 30 31  1  0  0  0
 31 32  1  0  0  0
 32 33  1  0  0  0
 33 34  1  0  0  0
 34 35  1  0  0  0
 33 36  1  0  0  0
 36 37  1  0  0  0
 37 38  1  0  0  0
 38 39  1  0  0  0
 39 40  1  0  0  0
 39 41  1  0  0  0
 41 42  1  0  0  0
 29 24  1  0  0  0
  9  3  1  0  0  0
 35 30  1  0  0  0
 42 36  1  0  0  0
 17 12  1  0  0  0
  1  2  1  0  0  0
 10 11  1  0  0  0
M  END
> <minimizedAffinity>
-6.50544

> <CNNscore>
0.1296881735

> <CNNaffinity>
7.0424757004

> <CNN_VS>
0.9133257866

> <CNNaffinity_variance>
0.1200840622

$$$$
[H]c1nc(OC2([H])C([H])([H])C([H])([H])N(C(=O)N([H])[C@@]3([H])C([H])([H])[C@]3([H])c3c([H])c([H])c([H])c([H])c3[H])C([H])([H])C2([H])[H])c([H])c([H])c1[H]


 26 29  0  0  0  0  0  0  0  0999 V2000
   -0.6658  -54.3195  -21.4617 O   0  0  0  0  0  0  0  0  0  0  0  0
   -0.4044  -53.2537  -22.1212 C   0  0  0  0  0  0  0  0  0  0  0  0
   -0.0644  -52.0863  -21.3880 N   0  0  0  0  0  0  0  0  0  0  0  0
   -0.4683  -53.2977  -23.5304 N   0  0  0  0  0  0  0  0  0  0  0  0
   -0.1847  -52.1196  -24.2988 C   0  0  0  0  0  0  0  0  0  0  0  0
   -0.8841  -52.2825  -25.6507 C   0  0  0  0  0  0  0  0  0  0  0  0
   -0.2956  -53.4641  -26.3770 C   0  0  0  0  0  0  0  0  0  0  0  0
    0.0489  -54.6031  -25.4662 C   0  0  0  0  0  0  0  0  0  0  0  0
   -0.8133  -54.5116  -24.2207 C   0  0  0  0  0  0  0  0  0  0  0  0
    0.1631  -51.1764  -21.8858 H   0  0  0  0  0  0  0  0  0  0  0  0
   -0.0299  -52.1506  -19.9473 C   0  0  0  0  0  0  0  0  0  0  0  0
    1.3836  -52.1690  -19.3745 C   0  0  0  0  0  0  0  0  0  0  0  0
    0.4560  -51.0006  -19.1467 C   0  0  0  0  0  0  0  0  0  0  0  0
   -0.0458  -50.8925  -17.7527 C   0  0  0  0  0  0  0  0  0  0  0  0
   -0.7596  -51.9362  -17.2022 C   0  0  0  0  0  0  0  0  0  0  0  0
   -1.2114  -51.7992  -15.9037 C   0  0  0  0  0  0  0  0  0  0  0  0
   -0.9491  -50.6465  -15.1898 C   0  0  0  0  0  0  0  0  0  0  0  0
   -0.2351  -49.5918  -15.7272 C   0  0  0  0  0  0  0  0  0  0  0  0
    0.2099  -49.7465  -17.0297 C   0  0  0  0  0  0  0  0  0  0  0  0
    0.8416  -53.0210  -27.1039 O   0  0  0  0  0  0  0  0  0  0  0  0
    1.9390  -52.4336  -26.5121 C   0  0  0  0  0  0  0  0  0  0  0  0
    2.1513  -51.0925  -26.6853 C   0  0  0  0  0  0  0  0  0  0  0  0
    3.2433  -50.4818  -26.1028 C   0  0  0  0  0  0  0  0  0  0  0  0
    4.0995  -51.2605  -25.3510 C   0  0  0  0  0  0  0  0  0  0  0  0
    3.8198  -52.6156  -25.2190 C   0  0  0  0  0  0  0  0  0  0  0  0
    2.7670  -53.1876  -25.7847 N   0  0  0  0  0  0  0  0  0  0  0  0
  1  2  2  0  0  0
  2  3  1  0  0  0
  3 11  1  0  0  0
 11 12  1  0  0  0
 12 13  1  0  0  0
 13 14  1  0  0  0
 14 15  2  0  0  0
 15 16  1  0  0  0
 16 17  2  0  0  0
 17 18  1  0  0  0
 18 19  2  0  0  0
  2  4  1  0  0  0
  4  5  1  0  0  0
  5  6  1  0  0  0
  6  7  1  0  0  0
  7  8  1  0  0  0
  8  9  1  0  0  0
  7 20  1  0  0  0
 20 21  1  0  0  0
 21 22  2  0  0  0
 22 23  1  0  0  0
 23 24  2  0  0  0
 24 25  1  0  0  0
 25 26  2  0  0  0
 13 11  1  0  0  0
 19 14  1  0  0  0
  9  4  1  0  0  0
 26 21  1  0  0  0
  3 10  1  0  0  0
M  END
> <minimizedAffinity>
-7.22617

> <CNNscore>
0.4865694046

> <CNNaffinity>
6.3098688126

> <CNN_VS>
3.0701889992

> <CNNaffinity_variance>
0.2394733429

$$$$
[H]c1nc(OC2([H])C([H])([H])C([H])([H])N(C(=O)N([H])[C@@]3([H])C([H])([H])[C@]3([H])c3c([H])c([H])c([H])c([H])c3[H])C([H])([H])C2([H])[H])c([H])c([H])c1[H]


 26 29  0  0  0  0  0  0  0  0999 V2000
   -0.4704  -54.0679  -22.4387 O   0  0  0  0  0  0  0  0  0  0  0  0
   -0.0718  -52.8708  -22.2212 C   0  0  0  0  0  0  0  0  0  0  0  0
    0.0661  -52.0043  -23.3376 N   0  0  0  0  0  0  0  0  0  0  0  0
    0.2066  -52.4813  -20.8936 N   0  0  0  0  0  0  0  0  0  0  0  0
    0.6585  -51.1480  -20.6165 C   0  0  0  0  0  0  0  0  0  0  0  0
    1.4173  -51.1950  -19.2879 C   0  0  0  0  0  0  0  0  0  0  0  0
    0.4718  -51.6033  -18.1882 C   0  0  0  0  0  0  0  0  0  0  0  0
   -0.5271  -52.6324  -18.6225 C   0  0  0  0  0  0  0  0  0  0  0  0
    0.0432  -53.4014  -19.8000 C   0  0  0  0  0  0  0  0  0  0  0  0
    0.3913  -51.0012  -23.2127 H   0  0  0  0  0  0  0  0  0  0  0  0
   -0.2441  -52.5053  -24.6543 C   0  0  0  0  0  0  0  0  0  0  0  0
   -1.4768  -51.8564  -25.2754 C   0  0  0  0  0  0  0  0  0  0  0  0
   -0.0982  -51.6404  -25.8502 C   0  0  0  0  0  0  0  0  0  0  0  0
    0.1264  -52.3236  -27.1501 C   0  0  0  0  0  0  0  0  0  0  0  0
   -0.8726  -52.3258  -28.1007 C   0  0  0  0  0  0  0  0  0  0  0  0
   -0.6280  -52.9724  -29.2970 C   0  0  0  0  0  0  0  0  0  0  0  0
    0.5849  -53.5938  -29.5211 C   0  0  0  0  0  0  0  0  0  0  0  0
    1.5961  -53.6003  -28.5785 C   0  0  0  0  0  0  0  0  0  0  0  0
    1.3334  -52.9475  -27.3855 C   0  0  0  0  0  0  0  0  0  0  0  0
   -0.1697  -50.4362  -17.6938 O   0  0  0  0  0  0  0  0  0  0  0  0
    0.0763  -49.9061  -16.4457 C   0  0  0  0  0  0  0  0  0  0  0  0
   -0.6654  -50.3390  -15.3799 C   0  0  0  0  0  0  0  0  0  0  0  0
   -0.4377  -49.8228  -14.1203 C   0  0  0  0  0  0  0  0  0  0  0  0
    0.5498  -48.8694  -13.9772 C   0  0  0  0  0  0  0  0  0  0  0  0
    1.2625  -48.4786  -15.1047 C   0  0  0  0  0  0  0  0  0  0  0  0
    1.0320  -48.9836  -16.3078 N   0  0  0  0  0  0  0  0  0  0  0  0
  1  2  2  0  0  0
  2  3  1  0  0  0
  3 11  1  0  0  0
 11 12  1  0  0  0
 12 13  1  0  0  0
 13 14  1  0  0  0
 14 15  2  0  0  0
 15 16  1  0  0  0
 16 17  2  0  0  0
 17 18  1  0  0  0
 18 19  2  0  0  0
  2  4  1  0  0  0
  4  5  1  0  0  0
  5  6  1  0  0  0
  6  7  1  0  0  0
  7  8  1  0  0  0
  8  9  1  0  0  0
  7 20  1  0  0  0
 20 21  1  0  0  0
 21 22  2  0  0  0
 22 23  1  0  0  0
 23 24  2  0  0  0
 24 25  1  0  0  0
 25 26  2  0  0  0
 13 11  1  0  0  0
 19 14  1  0  0  0
  9  4  1  0  0  0
 26 21  1  0  0  0
  3 10  1  0  0  0
M  END
> <minimizedAffinity>
-6.50297

> <CNNscore>
0.3849822581

> <CNNaffinity>
5.7648777962

> <CNN_VS>
2.2193756104

> <CNNaffinity_variance>
0.2217572033

$$$$
[H]c1nc(OC2([H])C([H])([H])C([H])([H])N(C(=O)N([H])[C@@]3([H])C([H])([H])[C@]3([H])c3c([H])c([H])c([H])c([H])c3[H])C([H])([H])C2([H])[H])c([H])c([H])c1[H]


 26 29  0  0  0  0  0  0  0  0999 V2000
   -0.8053  -53.2665  -23.4996 O   0  0  0  0  0  0  0  0  0  0  0  0
   -0.0464  -52.4491  -22.8710 C   0  0  0  0  0  0  0  0  0  0  0  0
    0.6212  -51.4490  -23.6262 N   0  0  0  0  0  0  0  0  0  0  0  0
    0.0838  -52.5862  -21.4725 N   0  0  0  0  0  0  0  0  0  0  0  0
    0.9293  -51.6885  -20.7389 C   0  0  0  0  0  0  0  0  0  0  0  0
    1.3350  -52.4035  -19.4476 C   0  0  0  0  0  0  0  0  0  0  0  0
    0.1060  -52.6676  -18.6170 C   0  0  0  0  0  0  0  0  0  0  0  0
   -1.0928  -53.0324  -19.4388 C   0  0  0  0  0  0  0  0  0  0  0  0
   -0.6222  -53.6161  -20.7582 C   0  0  0  0  0  0  0  0  0  0  0  0
    1.2607  -50.7449  -23.1540 H   0  0  0  0  0  0  0  0  0  0  0  0
    0.4189  -51.3988  -25.0536 C   0  0  0  0  0  0  0  0  0  0  0  0
    1.7180  -51.4378  -25.8520 C   0  0  0  0  0  0  0  0  0  0  0  0
    0.7251  -52.5730  -25.9062 C   0  0  0  0  0  0  0  0  0  0  0  0
   -0.0041  -52.6747  -27.1965 C   0  0  0  0  0  0  0  0  0  0  0  0
   -1.3781  -52.5590  -27.2140 C   0  0  0  0  0  0  0  0  0  0  0  0
   -2.0219  -52.6603  -28.4324 C   0  0  0  0  0  0  0  0  0  0  0  0
   -1.2991  -52.8710  -29.5901 C   0  0  0  0  0  0  0  0  0  0  0  0
    0.0783  -52.9889  -29.5892 C   0  0  0  0  0  0  0  0  0  0  0  0
    0.7067  -52.8849  -28.3592 C   0  0  0  0  0  0  0  0  0  0  0  0
   -0.1460  -51.5226  -17.8147 O   0  0  0  0  0  0  0  0  0  0  0  0
   -0.4805  -51.5905  -16.4794 C   0  0  0  0  0  0  0  0  0  0  0  0
   -1.7513  -51.2593  -16.0933 C   0  0  0  0  0  0  0  0  0  0  0  0
   -2.1099  -51.3192  -14.7619 C   0  0  0  0  0  0  0  0  0  0  0  0
   -1.1555  -51.7191  -13.8488 C   0  0  0  0  0  0  0  0  0  0  0  0
    0.1142  -52.0401  -14.3145 C   0  0  0  0  0  0  0  0  0  0  0  0
    0.4434  -51.9776  -15.5965 N   0  0  0  0  0  0  0  0  0  0  0  0
  1  2  2  0  0  0
  2  3  1  0  0  0
  3 11  1  0  0  0
 11 12  1  0  0  0
 12 13  1  0  0  0
 13 14  1  0  0  0
 14 15  2  0  0  0
 15 16  1  0  0  0
 16 17  2  0  0  0
 17 18  1  0  0  0
 18 19  2  0  0  0
  2  4  1  0  0  0
  4  5  1  0  0  0
  5  6  1  0  0  0
  6  7  1  0  0  0
  7  8  1  0  0  0
  8  9  1  0  0  0
  7 20  1  0  0  0
 20 21  1  0  0  0
 21 22  2  0  0  0
 22 23  1  0  0  0
 23 24  2  0  0  0
 24 25  1  0  0  0
 25 26  2  0  0  0
 13 11  1  0  0  0
 19 14  1  0  0  0
  9  4  1  0  0  0
 26 21  1  0  0  0
  3 10  1  0  0  0
M  END
> <minimizedAffinity>
-7.29278

> <CNNscore>
0.3486107886

> <CNNaffinity>
5.9066038132

> <CNN_VS>
2.0591058731

> <CNNaffinity_variance>
0.0878185481

$$$$
[H]c1nc(OC2([H])C([H])([H])C([H])([H])N(C(=O)N([H])[C@@]3([H])C([H])([H])[C@]3([H])c3c([H])c([H])c([H])c([H])c3[H])C([H])([H])C2([H])[H])c([H])c([H])c1[H]


 26 29  0  0  0  0  0  0  0  0999 V2000
   -0.6595  -53.7393  -22.2397 O   0  0  0  0  0  0  0  0  0  0  0  0
    0.1225  -52.7319  -22.1276 C   0  0  0  0  0  0  0  0  0  0  0  0
    0.5119  -52.0588  -23.3156 N   0  0  0  0  0  0  0  0  0  0  0  0
    0.5513  -52.3486  -20.8388 N   0  0  0  0  0  0  0  0  0  0  0  0
    1.4308  -51.2263  -20.6792 C   0  0  0  0  0  0  0  0  0  0  0  0
    2.1661  -51.4137  -19.3497 C   0  0  0  0  0  0  0  0  0  0  0  0
    1.1689  -51.3871  -18.2207 C   0  0  0  0  0  0  0  0  0  0  0  0
   -0.1283  -52.0536  -18.5650 C   0  0  0  0  0  0  0  0  0  0  0  0
    0.1193  -53.0653  -19.6687 C   0  0  0  0  0  0  0  0  0  0  0  0
    1.1574  -51.2165  -23.2788 H   0  0  0  0  0  0  0  0  0  0  0  0
    0.0162  -52.5351  -24.5838 C   0  0  0  0  0  0  0  0  0  0  0  0
   -1.3045  -51.8944  -24.9981 C   0  0  0  0  0  0  0  0  0  0  0  0
   -0.0303  -51.6406  -25.7659 C   0  0  0  0  0  0  0  0  0  0  0  0
    0.0078  -52.2899  -27.1015 C   0  0  0  0  0  0  0  0  0  0  0  0
   -1.1379  -52.3418  -27.8673 C   0  0  0  0  0  0  0  0  0  0  0  0
   -1.0645  -52.9548  -29.1034 C   0  0  0  0  0  0  0  0  0  0  0  0
    0.1267  -53.4949  -29.5467 C   0  0  0  0  0  0  0  0  0  0  0  0
    1.2835  -53.4508  -28.7913 C   0  0  0  0  0  0  0  0  0  0  0  0
    1.1914  -52.8328  -27.5551 C   0  0  0  0  0  0  0  0  0  0  0  0
    0.9687  -50.0352  -17.8327 O   0  0  0  0  0  0  0  0  0  0  0  0
    1.9555  -49.2523  -17.2733 C   0  0  0  0  0  0  0  0  0  0  0  0
    2.3675  -49.5126  -15.9942 C   0  0  0  0  0  0  0  0  0  0  0  0
    3.3539  -48.7422  -15.4125 C   0  0  0  0  0  0  0  0  0  0  0  0
    3.9010  -47.7163  -16.1561 C   0  0  0  0  0  0  0  0  0  0  0  0
    3.4325  -47.5115  -17.4486 C   0  0  0  0  0  0  0  0  0  0  0  0
    2.4844  -48.2599  -17.9934 N   0  0  0  0  0  0  0  0  0  0  0  0
  1  2  2  0  0  0
  2  3  1  0  0  0
  3 11  1  0  0  0
 11 12  1  0  0  0
 12 13  1  0  0  0
 13 14  1  0  0  0
 14 15  2  0  0  0
 15 16  1  0  0  0
 16 17  2  0  0  0
 17 18  1  0  0  0
 18 19  2  0  0  0
  2  4  1  0  0  0
  4  5  1  0  0  0
  5  6  1  0  0  0
  6  7  1  0  0  0
  7  8  1  0  0  0
  8  9  1  0  0  0
  7 20  1  0  0  0
 20 21  1  0  0  0
 21 22  2  0  0  0
 22 23  1  0  0  0
 23 24  2  0  0  0
 24 25  1  0  0  0
 25 26  2  0  0  0
 13 11  1  0  0  0
 19 14  1  0  0  0
  9  4  1  0  0  0
 26 21  1  0  0  0
  3 10  1  0  0  0
M  END
> <minimizedAffinity>
-6.34300

> <CNNscore>
0.3405908346

> <CNNaffinity>
5.6533880234

> <CNN_VS>
1.9254921675

> <CNNaffinity_variance>
0.3637176156

$$$$
[H]c1nc(OC2([H])C([H])([H])C([H])([H])N(C(=O)N([H])[C@@]3([H])C([H])([H])[C@]3([H])c3c([H])c([H])c([H])c([H])c3[H])C([H])([H])C2([H])[H])c([H])c([H])c1[H]


 26 29  0  0  0  0  0  0  0  0999 V2000
    0.9572  -50.0033  -22.2460 O   0  0  0  0  0  0  0  0  0  0  0  0
    1.1490  -51.2393  -22.5193 C   0  0  0  0  0  0  0  0  0  0  0  0
    0.6725  -52.2051  -21.5939 N   0  0  0  0  0  0  0  0  0  0  0  0
    1.8184  -51.5713  -23.7165 N   0  0  0  0  0  0  0  0  0  0  0  0
    2.0523  -52.9471  -24.0503 C   0  0  0  0  0  0  0  0  0  0  0  0
    3.2470  -52.9833  -25.0067 C   0  0  0  0  0  0  0  0  0  0  0  0
    2.8925  -52.2511  -26.2748 C   0  0  0  0  0  0  0  0  0  0  0  0
    2.0423  -51.0402  -26.0374 C   0  0  0  0  0  0  0  0  0  0  0  0
    2.2745  -50.5494  -24.6203 C   0  0  0  0  0  0  0  0  0  0  0  0
    0.8036  -53.2435  -21.7730 H   0  0  0  0  0  0  0  0  0  0  0  0
    0.0017  -51.7566  -20.3981 C   0  0  0  0  0  0  0  0  0  0  0  0
   -0.7207  -52.8741  -19.6525 C   0  0  0  0  0  0  0  0  0  0  0  0
    0.4775  -52.1756  -19.0574 C   0  0  0  0  0  0  0  0  0  0  0  0
    0.1489  -51.2808  -17.9180 C   0  0  0  0  0  0  0  0  0  0  0  0
    0.7261  -50.0306  -17.8444 C   0  0  0  0  0  0  0  0  0  0  0  0
    0.3977  -49.2268  -16.7696 C   0  0  0  0  0  0  0  0  0  0  0  0
   -0.4837  -49.6743  -15.8051 C   0  0  0  0  0  0  0  0  0  0  0  0
   -1.0707  -50.9244  -15.8647 C   0  0  0  0  0  0  0  0  0  0  0  0
   -0.7299  -51.7164  -16.9487 C   0  0  0  0  0  0  0  0  0  0  0  0
    2.2557  -53.1654  -27.1561 O   0  0  0  0  0  0  0  0  0  0  0  0
    0.9870  -52.9753  -27.6597 C   0  0  0  0  0  0  0  0  0  0  0  0
   -0.0696  -52.9001  -26.7928 C   0  0  0  0  0  0  0  0  0  0  0  0
   -1.3494  -52.7104  -27.2733 C   0  0  0  0  0  0  0  0  0  0  0  0
   -1.5219  -52.6007  -28.6382 C   0  0  0  0  0  0  0  0  0  0  0  0
   -0.4020  -52.6867  -29.4570 C   0  0  0  0  0  0  0  0  0  0  0  0
    0.8208  -52.8692  -28.9805 N   0  0  0  0  0  0  0  0  0  0  0  0
  1  2  2  0  0  0
  2  3  1  0  0  0
  3 11  1  0  0  0
 11 12  1  0  0  0
 12 13  1  0  0  0
 13 14  1  0  0  0
 14 15  2  0  0  0
 15 16  1  0  0  0
 16 17  2  0  0  0
 17 18  1  0  0  0
 18 19  2  0  0  0
  2  4  1  0  0  0
  4  5  1  0  0  0
  5  6  1  0  0  0
  6  7  1  0  0  0
  7  8  1  0  0  0
  8  9  1  0  0  0
  7 20  1  0  0  0
 20 21  1  0  0  0
 21 22  2  0  0  0
 22 23  1  0  0  0
 23 24  2  0  0  0
 24 25  1  0  0  0
 25 26  2  0  0  0
 13 11  1  0  0  0
 19 14  1  0  0  0
  9  4  1  0  0  0
 26 21  1  0  0  0
  3 10  1  0  0  0
M  END
> <minimizedAffinity>
-8.01999

> <CNNscore>
0.3252343833

> <CNNaffinity>
6.1078481674

> <CNN_VS>
1.9864822626

> <CNNaffinity_variance>
0.1460075378

$$$$
[H]c1nc(OC2([H])C([H])([H])C([H])([H])N(C(=O)N([H])[C@@]3([H])C([H])([H])[C@]3([H])c3c([H])c([H])c([H])c([H])c3[H])C([H])([H])C2([H])[H])c([H])c([H])c1[H]


 26 29  0  0  0  0  0  0  0  0999 V2000
   -1.7653  -53.2816  -19.7863 O   0  0  0  0  0  0  0  0  0  0  0  0
   -0.6473  -52.6592  -19.7433 C   0  0  0  0  0  0  0  0  0  0  0  0
   -0.1432  -52.2878  -18.4688 N   0  0  0  0  0  0  0  0  0  0  0  0
    0.0176  -52.3786  -20.9561 N   0  0  0  0  0  0  0  0  0  0  0  0
    1.2705  -51.6795  -20.9426 C   0  0  0  0  0  0  0  0  0  0  0  0
    1.4339  -51.0184  -22.3136 C   0  0  0  0  0  0  0  0  0  0  0  0
    1.5080  -52.0847  -23.3754 C   0  0  0  0  0  0  0  0  0  0  0  0
    0.6027  -53.2480  -23.1057 C   0  0  0  0  0  0  0  0  0  0  0  0
   -0.5384  -52.7846  -22.2191 C   0  0  0  0  0  0  0  0  0  0  0  0
    0.7803  -51.7718  -18.3767 H   0  0  0  0  0  0  0  0  0  0  0  0
   -0.9051  -52.6229  -17.2906 C   0  0  0  0  0  0  0  0  0  0  0  0
   -0.3757  -51.9673  -16.0192 C   0  0  0  0  0  0  0  0  0  0  0  0
   -1.7204  -51.5972  -16.5958 C   0  0  0  0  0  0  0  0  0  0  0  0
   -2.8736  -52.0842  -15.7960 C   0  0  0  0  0  0  0  0  0  0  0  0
   -2.9651  -51.7537  -14.4603 C   0  0  0  0  0  0  0  0  0  0  0  0
   -4.0510  -52.2260  -13.7483 C   0  0  0  0  0  0  0  0  0  0  0  0
   -5.0088  -53.0044  -14.3679 C   0  0  0  0  0  0  0  0  0  0  0  0
   -4.9315  -53.3442  -15.7057 C   0  0  0  0  0  0  0  0  0  0  0  0
   -3.8365  -52.8622  -16.4036 C   0  0  0  0  0  0  0  0  0  0  0  0
    2.8610  -52.5000  -23.4984 O   0  0  0  0  0  0  0  0  0  0  0  0
    3.9169  -51.6216  -23.6126 C   0  0  0  0  0  0  0  0  0  0  0  0
    4.9046  -51.6404  -22.6651 C   0  0  0  0  0  0  0  0  0  0  0  0
    5.9718  -50.7703  -22.7578 C   0  0  0  0  0  0  0  0  0  0  0  0
    6.0062  -49.8946  -23.8239 C   0  0  0  0  0  0  0  0  0  0  0  0
    4.9679  -49.9331  -24.7471 C   0  0  0  0  0  0  0  0  0  0  0  0
    3.9495  -50.7746  -24.6444 N   0  0  0  0  0  0  0  0  0  0  0  0
  1  2  2  0  0  0
  2  3  1  0  0  0
  3 11  1  0  0  0
 11 12  1  0  0  0
 12 13  1  0  0  0
 13 14  1  0  0  0
 14 15  2  0  0  0
 15 16  1  0  0  0
 16 17  2  0  0  0
 17 18  1  0  0  0
 18 19  2  0  0  0
  2  4  1  0  0  0
  4  5  1  0  0  0
  5  6  1  0  0  0
  6  7  1  0  0  0
  7  8  1  0  0  0
  8  9  1  0  0  0
  7 20  1  0  0  0
 20 21  1  0  0  0
 21 22  2  0  0  0
 22 23  1  0  0  0
 23 24  2  0  0  0
 24 25  1  0  0  0
 25 26  2  0  0  0
 13 11  1  0  0  0
 19 14  1  0  0  0
  9  4  1  0  0  0
 26 21  1  0  0  0
  3 10  1  0  0  0
M  END
> <minimizedAffinity>
-6.62411

> <CNNscore>
0.2562212348

> <CNNaffinity>
5.5711641312

> <CNN_VS>
1.4274505377

> <CNNaffinity_variance>
0.1443652362

$$$$
[H]c1nc(OC2([H])C([H])([H])C([H])([H])N(C(=O)N([H])[C@@]3([H])C([H])([H])[C@]3([H])c3c([H])c([H])c([H])c([H])c3[H])C([H])([H])C2([H])[H])c([H])c([H])c1[H]


 26 29  0  0  0  0  0  0  0  0999 V2000
   -0.3313  -52.4823  -23.2839 O   0  0  0  0  0  0  0  0  0  0  0  0
    0.7063  -51.8367  -22.9024 C   0  0  0  0  0  0  0  0  0  0  0  0
    1.4332  -51.1103  -23.8822 N   0  0  0  0  0  0  0  0  0  0  0  0
    1.0679  -51.8822  -21.5389 N   0  0  0  0  0  0  0  0  0  0  0  0
    2.2273  -51.1725  -21.0797 C   0  0  0  0  0  0  0  0  0  0  0  0
    2.6934  -51.8542  -19.7908 C   0  0  0  0  0  0  0  0  0  0  0  0
    1.6210  -51.7214  -18.7409 C   0  0  0  0  0  0  0  0  0  0  0  0
    0.2345  -51.8351  -19.2979 C   0  0  0  0  0  0  0  0  0  0  0  0
    0.2895  -52.6310  -20.5888 C   0  0  0  0  0  0  0  0  0  0  0  0
    2.3001  -50.5563  -23.6190 H   0  0  0  0  0  0  0  0  0  0  0  0
    0.9770  -51.1323  -25.2505 C   0  0  0  0  0  0  0  0  0  0  0  0
    2.1111  -51.2191  -26.2668 C   0  0  0  0  0  0  0  0  0  0  0  0
    1.1292  -52.3504  -26.0828 C   0  0  0  0  0  0  0  0  0  0  0  0
    0.1800  -52.5143  -27.2137 C   0  0  0  0  0  0  0  0  0  0  0  0
    0.6639  -52.7875  -28.4758 C   0  0  0  0  0  0  0  0  0  0  0  0
   -0.2488  -52.9320  -29.5030 C   0  0  0  0  0  0  0  0  0  0  0  0
   -1.6022  -52.8042  -29.2594 C   0  0  0  0  0  0  0  0  0  0  0  0
   -2.1029  -52.5308  -28.0002 C   0  0  0  0  0  0  0  0  0  0  0  0
   -1.1737  -52.3891  -26.9829 C   0  0  0  0  0  0  0  0  0  0  0  0
    1.8073  -50.4858  -18.0653 O   0  0  0  0  0  0  0  0  0  0  0  0
    1.2380  -50.1953  -16.8442 C   0  0  0  0  0  0  0  0  0  0  0  0
    0.2899  -49.2109  -16.7684 C   0  0  0  0  0  0  0  0  0  0  0  0
   -0.2943  -48.9019  -15.5568 C   0  0  0  0  0  0  0  0  0  0  0  0
    0.1060  -49.6106  -14.4423 C   0  0  0  0  0  0  0  0  0  0  0  0
    1.0738  -50.5963  -14.5958 C   0  0  0  0  0  0  0  0  0  0  0  0
    1.6257  -50.8816  -15.7662 N   0  0  0  0  0  0  0  0  0  0  0  0
  1  2  2  0  0  0
  2  3  1  0  0  0
  3 11  1  0  0  0
 11 12  1  0  0  0
 12 13  1  0  0  0
 13 14  1  0  0  0
 14 15  2  0  0  0
 15 16  1  0  0  0
 16 17  2  0  0  0
 17 18  1  0  0  0
 18 19  2  0  0  0
  2  4  1  0  0  0
  4  5  1  0  0  0
  5  6  1  0  0  0
  6  7  1  0  0  0
  7  8  1  0  0  0
  8  9  1  0  0  0
  7 20  1  0  0  0
 20 21  1  0  0  0
 21 22  2  0  0  0
 22 23  1  0  0  0
 23 24  2  0  0  0
 24 25  1  0  0  0
 25 26  2  0  0  0
 13 11  1  0  0  0
 19 14  1  0  0  0
  9  4  1  0  0  0
 26 21  1  0  0  0
  3 10  1  0  0  0
M  END
> <minimizedAffinity>
-7.25067

> <CNNscore>
0.2092328370

> <CNNaffinity>
5.6515278816

> <CNN_VS>
1.1824852228

> <CNNaffinity_variance>
0.2000102252

$$$$
[H]c1nc(OC2([H])C([H])([H])C([H])([H])N(C(=O)N([H])[C@@]3([H])C([H])([H])[C@]3([H])c3c([H])c([H])c([H])c([H])c3[H])C([H])([H])C2([H])[H])c([H])c([H])c1[H]


 26 29  0  0  0  0  0  0  0  0999 V2000
   -0.3658  -53.2797  -19.4130 O   0  0  0  0  0  0  0  0  0  0  0  0
    0.1518  -52.6219  -20.3817 C   0  0  0  0  0  0  0  0  0  0  0  0
    1.0830  -51.5977  -20.0654 N   0  0  0  0  0  0  0  0  0  0  0  0
   -0.2289  -52.9485  -21.7008 N   0  0  0  0  0  0  0  0  0  0  0  0
    0.3301  -52.2278  -22.8085 C   0  0  0  0  0  0  0  0  0  0  0  0
   -0.6512  -52.3609  -23.9758 C   0  0  0  0  0  0  0  0  0  0  0  0
   -0.7608  -53.8104  -24.3720 C   0  0  0  0  0  0  0  0  0  0  0  0
   -0.7144  -54.7456  -23.2020 C   0  0  0  0  0  0  0  0  0  0  0  0
   -1.1738  -54.0012  -21.9620 C   0  0  0  0  0  0  0  0  0  0  0  0
    1.5431  -51.0233  -20.8310 H   0  0  0  0  0  0  0  0  0  0  0  0
    1.4009  -51.3445  -18.6813 C   0  0  0  0  0  0  0  0  0  0  0  0
    1.6555  -49.8717  -18.3771 C   0  0  0  0  0  0  0  0  0  0  0  0
    0.4607  -50.5986  -17.8100 C   0  0  0  0  0  0  0  0  0  0  0  0
    0.5498  -50.8566  -16.3497 C   0  0  0  0  0  0  0  0  0  0  0  0
    1.7302  -50.6031  -15.6833 C   0  0  0  0  0  0  0  0  0  0  0  0
    1.7759  -50.8565  -14.3258 C   0  0  0  0  0  0  0  0  0  0  0  0
    0.6656  -51.3486  -13.6683 C   0  0  0  0  0  0  0  0  0  0  0  0
   -0.5247  -51.6076  -14.3219 C   0  0  0  0  0  0  0  0  0  0  0  0
   -0.5523  -51.3479  -15.6822 C   0  0  0  0  0  0  0  0  0  0  0  0
    0.2709  -54.0981  -25.3052 O   0  0  0  0  0  0  0  0  0  0  0  0
    0.2247  -53.7166  -26.6288 C   0  0  0  0  0  0  0  0  0  0  0  0
   -0.8538  -53.0045  -27.0797 C   0  0  0  0  0  0  0  0  0  0  0  0
   -0.9228  -52.6116  -28.4009 C   0  0  0  0  0  0  0  0  0  0  0  0
    0.1190  -52.9573  -29.2374 C   0  0  0  0  0  0  0  0  0  0  0  0
    1.1813  -53.6812  -28.7088 C   0  0  0  0  0  0  0  0  0  0  0  0
    1.2332  -54.0514  -27.4376 N   0  0  0  0  0  0  0  0  0  0  0  0
  1  2  2  0  0  0
  2  3  1  0  0  0
  3 11  1  0  0  0
 11 12  1  0  0  0
 12 13  1  0  0  0
 13 14  1  0  0  0
 14 15  2  0  0  0
 15 16  1  0  0  0
 16 17  2  0  0  0
 17 18  1  0  0  0
 18 19  2  0  0  0
  2  4  1  0  0  0
  4  5  1  0  0  0
  5  6  1  0  0  0
  6  7  1  0  0  0
  7  8  1  0  0  0
  8  9  1  0  0  0
  7 20  1  0  0  0
 20 21  1  0  0  0
 21 22  2  0  0  0
 22 23  1  0  0  0
 23 24  2  0  0  0
 24 25  1  0  0  0
 25 26  2  0  0  0
 13 11  1  0  0  0
 19 14  1  0  0  0
  9  4  1  0  0  0
 26 21  1  0  0  0
  3 10  1  0  0  0
M  END
> <minimizedAffinity>
-7.41123

> <CNNscore>
0.2066356987

> <CNNaffinity>
5.7035207748

> <CNN_VS>
1.1785509586

> <CNNaffinity_variance>
0.1265605688

$$$$
[H]c1nc(OC2([H])C([H])([H])C([H])([H])N(C(=O)N([H])[C@@]3([H])C([H])([H])[C@]3([H])c3c([H])c([H])c([H])c([H])c3[H])C([H])([H])C2([H])[H])c([H])c([H])c1[H]


 26 29  0  0  0  0  0  0  0  0999 V2000
    2.1677  -47.6056  -22.5867 O   0  0  0  0  0  0  0  0  0  0  0  0
    2.7123  -48.7403  -22.3525 C   0  0  0  0  0  0  0  0  0  0  0  0
    3.6711  -49.2208  -23.2831 N   0  0  0  0  0  0  0  0  0  0  0  0
    2.3326  -49.4458  -21.1907 N   0  0  0  0  0  0  0  0  0  0  0  0
    2.9216  -50.7217  -20.9011 C   0  0  0  0  0  0  0  0  0  0  0  0
    1.9460  -51.4741  -19.9926 C   0  0  0  0  0  0  0  0  0  0  0  0
    1.7966  -50.7256  -18.6936 C   0  0  0  0  0  0  0  0  0  0  0  0
    1.8058  -49.2372  -18.8673 C   0  0  0  0  0  0  0  0  0  0  0  0
    1.3589  -48.9067  -20.2794 C   0  0  0  0  0  0  0  0  0  0  0  0
    4.1541  -50.1549  -23.1355 H   0  0  0  0  0  0  0  0  0  0  0  0
    3.9853  -48.4191  -24.4404 C   0  0  0  0  0  0  0  0  0  0  0  0
    4.9201  -49.1148  -25.4246 C   0  0  0  0  0  0  0  0  0  0  0  0
    3.4891  -48.7990  -25.7854 C   0  0  0  0  0  0  0  0  0  0  0  0
    3.3461  -47.7066  -26.7820 C   0  0  0  0  0  0  0  0  0  0  0  0
    3.8580  -47.8709  -28.0519 C   0  0  0  0  0  0  0  0  0  0  0  0
    3.7072  -46.8328  -28.9512 C   0  0  0  0  0  0  0  0  0  0  0  0
    3.0611  -45.6711  -28.5766 C   0  0  0  0  0  0  0  0  0  0  0  0
    2.5424  -45.4912  -27.3079 C   0  0  0  0  0  0  0  0  0  0  0  0
    2.7028  -46.5419  -26.4198 C   0  0  0  0  0  0  0  0  0  0  0  0
    2.8266  -51.1498  -17.8120 O   0  0  0  0  0  0  0  0  0  0  0  0
    2.7509  -51.0261  -16.4414 C   0  0  0  0  0  0  0  0  0  0  0  0
    1.5256  -50.8615  -15.8540 C   0  0  0  0  0  0  0  0  0  0  0  0
    1.4244  -50.7351  -14.4834 C   0  0  0  0  0  0  0  0  0  0  0  0
    2.5855  -50.7804  -13.7387 C   0  0  0  0  0  0  0  0  0  0  0  0
    3.7938  -50.9502  -14.4044 C   0  0  0  0  0  0  0  0  0  0  0  0
    3.8748  -51.0700  -15.7215 N   0  0  0  0  0  0  0  0  0  0  0  0
  1  2  2  0  0  0
  2  3  1  0  0  0
  3 11  1  0  0  0
 11 12  1  0  0  0
 12 13  1  0  0  0
 13 14  1  0  0  0
 14 15  2  0  0  0
 15 16  1  0  0  0
 16 17  2  0  0  0
 17 18  1  0  0  0
 18 19  2  0  0  0
  2  4  1  0  0  0
  4  5  1  0  0  0
  5  6  1  0  0  0
  6  7  1  0  0  0
  7  8  1  0  0  0
  8  9  1  0  0  0
  7 20  1  0  0  0
 20 21  1  0  0  0
 21 22  2  0  0  0
 22 23  1  0  0  0
 23 24  2  0  0  0
 24 25  1  0  0  0
 25 26  2  0  0  0
 13 11  1  0  0  0
 19 14  1  0  0  0
  9  4  1  0  0  0
 26 21  1  0  0  0
  3 10  1  0  0  0
M  END
> <minimizedAffinity>
-5.23512

> <CNNscore>
0.2064688951

> <CNNaffinity>
4.7577676773

> <CNN_VS>
0.9823310375

> <CNNaffinity_variance>
0.0734816641

$$$$
[H]O[C@@]1([H])[C@]([H])(O[H])[C@@]([H])(C([H])([H])OP(=O)(O[H])O[H])O[C@@]1([H])n1c([H])nc2c(N([H])[H])nc([H])nc21


 29 31  0  0  0  0  0  0  0  0999 V2000
    0.1381  -51.3421  -19.9045 C   0  0  0  0  0  0  0  0  0  0  0  0
    0.0871  -50.2308  -20.7289 O   0  0  0  0  0  0  0  0  0  0  0  0
    1.1604  -49.4199  -20.4014 C   0  0  0  0  0  0  0  0  0  0  0  0
    2.2797  -50.3921  -20.0916 C   0  0  0  0  0  0  0  0  0  0  0  0
    3.1533  -49.7408  -19.2259 O   0  0  0  0  0  0  0  0  0  0  0  0
    1.5362  -51.5123  -19.4311 C   0  0  0  0  0  0  0  0  0  0  0  0
    2.1214  -52.7080  -19.8327 O   0  0  0  0  0  0  0  0  0  0  0  0
    3.4150  -50.3566  -18.4967 H   0  0  0  0  0  0  0  0  0  0  0  0
    2.6221  -53.0714  -19.0550 H   0  0  0  0  0  0  0  0  0  0  0  0
   -1.5735  -55.7127  -23.7802 N   0  0  0  0  0  0  0  0  0  0  0  0
   -0.9084  -54.4872  -23.4833 C   0  0  0  0  0  0  0  0  0  0  0  0
   -0.2592  -53.7813  -24.4461 N   0  0  0  0  0  0  0  0  0  0  0  0
    0.3723  -52.6222  -24.1750 C   0  0  0  0  0  0  0  0  0  0  0  0
    0.3900  -52.1045  -22.9274 N   0  0  0  0  0  0  0  0  0  0  0  0
   -0.2369  -52.7577  -21.9246 C   0  0  0  0  0  0  0  0  0  0  0  0
   -0.3913  -52.4970  -20.6004 N   0  0  0  0  0  0  0  0  0  0  0  0
   -1.1141  -53.5005  -20.0841 C   0  0  0  0  0  0  0  0  0  0  0  0
   -1.4085  -54.3728  -21.0590 N   0  0  0  0  0  0  0  0  0  0  0  0
   -0.8815  -53.9454  -22.2129 C   0  0  0  0  0  0  0  0  0  0  0  0
   -2.5818  -55.8141  -23.5370 H   0  0  0  0  0  0  0  0  0  0  0  0
   -1.0815  -56.5164  -24.2356 H   0  0  0  0  0  0  0  0  0  0  0  0
    1.6121  -48.5580  -21.5500 C   0  0  0  0  0  0  0  0  0  0  0  0
    2.3738  -47.5148  -21.0019 O   0  0  0  0  0  0  0  0  0  0  0  0
    3.8327  -47.3196  -21.8228 P   0  0  0  0  0  0  0  0  0  0  0  0
    5.0820  -48.2177  -21.1455 O   0  0  0  0  0  0  0  0  0  0  0  0
    3.5921  -47.8885  -23.4082 O   0  0  0  0  0  0  0  0  0  0  0  0
    4.2654  -45.8726  -21.8570 O   0  0  0  0  0  0  0  0  0  0  0  0
    4.7903  -48.8172  -20.4210 H   0  0  0  0  0  0  0  0  0  0  0  0
    3.8720  -48.8361  -23.4568 H   0  0  0  0  0  0  0  0  0  0  0  0
 10 11  1  0  0  0
 11 12  2  0  0  0
 12 13  1  0  0  0
 13 14  2  0  0  0
 14 15  1  0  0  0
 15 16  1  0  0  0
 16 17  1  0  0  0
 17 18  2  0  0  0
 18 19  1  0  0  0
 16  1  1  0  0  0
  1  2  1  0  0  0
  2  3  1  0  0  0
  3 22  1  0  0  0
 22 23  1  0  0  0
 23 24  1  0  0  0
 24 25  1  0  0  0
 24 26  1  0  0  0
 24 27  2  0  0  0
  3  4  1  0  0  0
  4  5  1  0  0  0
  4  6  1  0  0  0
  6  7  1  0  0  0
 19 11  1  0  0  0
  6  1  1  0  0  0
 19 15  2  0  0  0
 10 20  1  0  0  0
 10 21  1  0  0  0
 25 28  1  0  0  0
 26 29  1  0  0  0
  5  8  1  0  0  0
  7  9  1  0  0  0
M  END
> <minimizedAffinity>
-6.17161

> <CNNscore>
0.9132555723

> <CNNaffinity>
5.0881233215

> <CNN_VS>
4.6467571259

> <CNNaffinity_variance>
0.0565844290

$$$$
[H]O[C@@]1([H])[C@]([H])(O[H])[C@@]([H])(C([H])([H])OP(=O)(O[H])O[H])O[C@@]1([H])n1c([H])nc2c(N([H])[H])nc([H])nc21


 29 31  0  0  0  0  0  0  0  0999 V2000
    0.6586  -50.4950  -20.6186 C   0  0  0  0  0  0  0  0  0  0  0  0
    0.9184  -49.2338  -21.1277 O   0  0  0  0  0  0  0  0  0  0  0  0
    1.7810  -48.5999  -20.2497 C   0  0  0  0  0  0  0  0  0  0  0  0
    2.7041  -49.7027  -19.7746 C   0  0  0  0  0  0  0  0  0  0  0  0
    3.1782  -49.3223  -18.5226 O   0  0  0  0  0  0  0  0  0  0  0  0
    1.7722  -50.8738  -19.7107 C   0  0  0  0  0  0  0  0  0  0  0  0
    2.4738  -52.0004  -20.1253 O   0  0  0  0  0  0  0  0  0  0  0  0
    3.1463  -50.0977  -17.9084 H   0  0  0  0  0  0  0  0  0  0  0  0
    2.6429  -52.5596  -19.3213 H   0  0  0  0  0  0  0  0  0  0  0  0
   -0.9208  -55.0031  -24.3915 N   0  0  0  0  0  0  0  0  0  0  0  0
   -0.9594  -54.3566  -23.1215 C   0  0  0  0  0  0  0  0  0  0  0  0
   -1.6728  -54.8706  -22.0855 N   0  0  0  0  0  0  0  0  0  0  0  0
   -1.7154  -54.2667  -20.8816 C   0  0  0  0  0  0  0  0  0  0  0  0
   -1.0476  -53.1162  -20.6465 N   0  0  0  0  0  0  0  0  0  0  0  0
   -0.3192  -52.5531  -21.6352 C   0  0  0  0  0  0  0  0  0  0  0  0
    0.4415  -51.4297  -21.7038 N   0  0  0  0  0  0  0  0  0  0  0  0
    0.9360  -51.3653  -22.9476 C   0  0  0  0  0  0  0  0  0  0  0  0
    0.4981  -52.4225  -23.6466 N   0  0  0  0  0  0  0  0  0  0  0  0
   -0.2820  -53.1802  -22.8660 C   0  0  0  0  0  0  0  0  0  0  0  0
    0.0025  -55.2518  -24.8059 H   0  0  0  0  0  0  0  0  0  0  0  0
   -1.7914  -55.2370  -24.9232 H   0  0  0  0  0  0  0  0  0  0  0  0
    2.6306  -47.5536  -20.9200 C   0  0  0  0  0  0  0  0  0  0  0  0
    2.2921  -47.5646  -22.2817 O   0  0  0  0  0  0  0  0  0  0  0  0
    3.6212  -47.9487  -23.2442 P   0  0  0  0  0  0  0  0  0  0  0  0
    3.4157  -47.4848  -24.8468 O   0  0  0  0  0  0  0  0  0  0  0  0
    4.9502  -47.0847  -22.6258 O   0  0  0  0  0  0  0  0  0  0  0  0
    3.9173  -49.4300  -23.2228 O   0  0  0  0  0  0  0  0  0  0  0  0
    2.5957  -46.9635  -25.0056 H   0  0  0  0  0  0  0  0  0  0  0  0
    5.0378  -46.2314  -23.1188 H   0  0  0  0  0  0  0  0  0  0  0  0
 10 11  1  0  0  0
 11 12  2  0  0  0
 12 13  1  0  0  0
 13 14  2  0  0  0
 14 15  1  0  0  0
 15 16  1  0  0  0
 16 17  1  0  0  0
 17 18  2  0  0  0
 18 19  1  0  0  0
 16  1  1  0  0  0
  1  2  1  0  0  0
  2  3  1  0  0  0
  3 22  1  0  0  0
 22 23  1  0  0  0
 23 24  1  0  0  0
 24 25  1  0  0  0
 24 26  1  0  0  0
 24 27  2  0  0  0
  3  4  1  0  0  0
  4  5  1  0  0  0
  4  6  1  0  0  0
  6  7  1  0  0  0
 19 11  1  0  0  0
  6  1  1  0  0  0
 19 15  2  0  0  0
 10 20  1  0  0  0
 10 21  1  0  0  0
 25 28  1  0  0  0
 26 29  1  0  0  0
  5  8  1  0  0  0
  7  9  1  0  0  0
M  END
> <minimizedAffinity>
-5.74290

> <CNNscore>
0.9103490114

> <CNNaffinity>
4.9744176865

> <CNN_VS>
4.5284562111

> <CNNaffinity_variance>
0.1359684169

$$$$
[H]O[C@@]1([H])[C@]([H])(O[H])[C@@]([H])(C([H])([H])OP(=O)(O[H])O[H])O[C@@]1([H])n1c([H])nc2c(N([H])[H])nc([H])nc21


 29 31  0  0  0  0  0  0  0  0999 V2000
    2.1777  -50.9861  -24.1677 C   0  0  0  0  0  0  0  0  0  0  0  0
    2.1092  -50.1931  -25.3006 O   0  0  0  0  0  0  0  0  0  0  0  0
    3.3821  -49.7070  -25.5462 C   0  0  0  0  0  0  0  0  0  0  0  0
    4.2965  -50.8565  -25.1766 C   0  0  0  0  0  0  0  0  0  0  0  0
    5.5252  -50.3013  -24.8319 O   0  0  0  0  0  0  0  0  0  0  0  0
    3.5793  -51.4514  -24.0037 C   0  0  0  0  0  0  0  0  0  0  0  0
    3.7221  -52.8329  -24.0723 O   0  0  0  0  0  0  0  0  0  0  0  0
    5.8663  -50.7386  -24.0122 H   0  0  0  0  0  0  0  0  0  0  0  0
    4.3545  -53.1037  -23.3553 H   0  0  0  0  0  0  0  0  0  0  0  0
   -1.8296  -55.4971  -23.3643 N   0  0  0  0  0  0  0  0  0  0  0  0
   -0.9231  -54.5181  -22.8621 C   0  0  0  0  0  0  0  0  0  0  0  0
   -0.7127  -54.3645  -21.5284 N   0  0  0  0  0  0  0  0  0  0  0  0
    0.1419  -53.4420  -21.0443 C   0  0  0  0  0  0  0  0  0  0  0  0
    0.8334  -52.6224  -21.8659 N   0  0  0  0  0  0  0  0  0  0  0  0
    0.6695  -52.7240  -23.2030 C   0  0  0  0  0  0  0  0  0  0  0  0
    1.2090  -52.0595  -24.2578 N   0  0  0  0  0  0  0  0  0  0  0  0
    0.6756  -52.5863  -25.3686 C   0  0  0  0  0  0  0  0  0  0  0  0
   -0.1795  -53.5595  -25.0228 N   0  0  0  0  0  0  0  0  0  0  0  0
   -0.2091  -53.6731  -23.6893 C   0  0  0  0  0  0  0  0  0  0  0  0
   -1.4879  -56.1960  -24.0578 H   0  0  0  0  0  0  0  0  0  0  0  0
   -2.8299  -55.5374  -23.0590 H   0  0  0  0  0  0  0  0  0  0  0  0
    3.6153  -49.3900  -26.9992 C   0  0  0  0  0  0  0  0  0  0  0  0
    4.5588  -48.3525  -27.0437 O   0  0  0  0  0  0  0  0  0  0  0  0
    4.0169  -47.0666  -27.9888 P   0  0  0  0  0  0  0  0  0  0  0  0
    3.7258  -47.5125  -29.5833 O   0  0  0  0  0  0  0  0  0  0  0  0
    2.5397  -46.5470  -27.3230 O   0  0  0  0  0  0  0  0  0  0  0  0
    5.0056  -45.9243  -27.9981 O   0  0  0  0  0  0  0  0  0  0  0  0
    3.8118  -48.4799  -29.7453 H   0  0  0  0  0  0  0  0  0  0  0  0
    1.7968  -47.0008  -27.7929 H   0  0  0  0  0  0  0  0  0  0  0  0
 10 11  1  0  0  0
 11 12  2  0  0  0
 12 13  1  0  0  0
 13 14  2  0  0  0
 14 15  1  0  0  0
 15 16  1  0  0  0
 16 17  1  0  0  0
 17 18  2  0  0  0
 18 19  1  0  0  0
 16  1  1  0  0  0
  1  2  1  0  0  0
  2  3  1  0  0  0
  3 22  1  0  0  0
 22 23  1  0  0  0
 23 24  1  0  0  0
 24 25  1  0  0  0
 24 26  1  0  0  0
 24 27  2  0  0  0
  3  4  1  0  0  0
  4  5  1  0  0  0
  4  6  1  0  0  0
  6  7  1  0  0  0
 19 11  1  0  0  0
  6  1  1  0  0  0
 19 15  2  0  0  0
 10 20  1  0  0  0
 10 21  1  0  0  0
 25 28  1  0  0  0
 26 29  1  0  0  0
  5  8  1  0  0  0
  7  9  1  0  0  0
M  END
> <minimizedAffinity>
-5.88531

> <CNNscore>
0.7504290938

> <CNNaffinity>
5.0117835999

> <CNN_VS>
3.7609882355

> <CNNaffinity_variance>
0.4806029797

$$$$
[H]O[C@@]1([H])[C@]([H])(O[H])[C@@]([H])(C([H])([H])OP(=O)(O[H])O[H])O[C@@]1([H])n1c([H])nc2c(N([H])[H])nc([H])nc21


 29 31  0  0  0  0  0  0  0  0999 V2000
    2.0123  -50.8475  -21.7490 C   0  0  0  0  0  0  0  0  0  0  0  0
    2.7466  -51.4133  -20.7205 O   0  0  0  0  0  0  0  0  0  0  0  0
    2.8226  -50.4799  -19.7008 C   0  0  0  0  0  0  0  0  0  0  0  0
    1.4679  -49.8026  -19.7154 C   0  0  0  0  0  0  0  0  0  0  0  0
    1.6451  -48.5318  -19.1763 O   0  0  0  0  0  0  0  0  0  0  0  0
    1.1578  -49.7731  -21.1806 C   0  0  0  0  0  0  0  0  0  0  0  0
   -0.2052  -50.0025  -21.3328 O   0  0  0  0  0  0  0  0  0  0  0  0
    1.1573  -47.8693  -19.7265 H   0  0  0  0  0  0  0  0  0  0  0  0
   -0.6247  -49.1425  -21.6011 H   0  0  0  0  0  0  0  0  0  0  0  0
   -1.5723  -55.3899  -23.6384 N   0  0  0  0  0  0  0  0  0  0  0  0
   -1.0673  -54.5286  -22.6208 C   0  0  0  0  0  0  0  0  0  0  0  0
   -1.4945  -54.6243  -21.3344 N   0  0  0  0  0  0  0  0  0  0  0  0
   -1.0231  -53.8147  -20.3658 C   0  0  0  0  0  0  0  0  0  0  0  0
   -0.0992  -52.8651  -20.6291 N   0  0  0  0  0  0  0  0  0  0  0  0
    0.3669  -52.7181  -21.8886 C   0  0  0  0  0  0  0  0  0  0  0  0
    1.2730  -51.8766  -22.4511 N   0  0  0  0  0  0  0  0  0  0  0  0
    1.3404  -52.1854  -23.7534 C   0  0  0  0  0  0  0  0  0  0  0  0
    0.4975  -53.1972  -24.0062 N   0  0  0  0  0  0  0  0  0  0  0  0
   -0.1227  -53.5532  -22.8745 C   0  0  0  0  0  0  0  0  0  0  0  0
   -0.9025  -55.9531  -24.2044 H   0  0  0  0  0  0  0  0  0  0  0  0
   -2.5964  -55.4758  -23.8368 H   0  0  0  0  0  0  0  0  0  0  0  0
    3.0010  -51.1099  -18.3453 C   0  0  0  0  0  0  0  0  0  0  0  0
    3.3240  -50.0752  -17.4543 O   0  0  0  0  0  0  0  0  0  0  0  0
    3.2845  -50.6045  -15.8547 P   0  0  0  0  0  0  0  0  0  0  0  0
    1.7682  -51.1672  -15.3962 O   0  0  0  0  0  0  0  0  0  0  0  0
    4.3735  -51.9063  -15.7338 O   0  0  0  0  0  0  0  0  0  0  0  0
    3.6847  -49.5097  -14.8937 O   0  0  0  0  0  0  0  0  0  0  0  0
    1.1217  -51.2104  -16.1375 H   0  0  0  0  0  0  0  0  0  0  0  0
    3.8789  -52.7535  -15.8618 H   0  0  0  0  0  0  0  0  0  0  0  0
 10 11  1  0  0  0
 11 12  2  0  0  0
 12 13  1  0  0  0
 13 14  2  0  0  0
 14 15  1  0  0  0
 15 16  1  0  0  0
 16 17  1  0  0  0
 17 18  2  0  0  0
 18 19  1  0  0  0
 16  1  1  0  0  0
  1  2  1  0  0  0
  2  3  1  0  0  0
  3 22  1  0  0  0
 22 23  1  0  0  0
 23 24  1  0  0  0
 24 25  1  0  0  0
 24 26  1  0  0  0
 24 27  2  0  0  0
  3  4  1  0  0  0
  4  5  1  0  0  0
  4  6  1  0  0  0
  6  7  1  0  0  0
 19 11  1  0  0  0
  6  1  1  0  0  0
 19 15  2  0  0  0
 10 20  1  0  0  0
 10 21  1  0  0  0
 25 28  1  0  0  0
 26 29  1  0  0  0
  5  8  1  0  0  0
  7  9  1  0  0  0
M  END
> <minimizedAffinity>
-6.38625

> <CNNscore>
0.7245776653

> <CNNaffinity>
4.7640857697

> <CNN_VS>
3.4519500732

> <CNNaffinity_variance>
0.1775369793

$$$$
[H]O[C@@]1([H])[C@]([H])(O[H])[C@@]([H])(C([H])([H])OP(=O)(O[H])O[H])O[C@@]1([H])n1c([H])nc2c(N([H])[H])nc([H])nc21


 29 31  0  0  0  0  0  0  0  0999 V2000
    2.2275  -52.5874  -24.1006 C   0  0  0  0  0  0  0  0  0  0  0  0
    3.4135  -51.9027  -23.8960 O   0  0  0  0  0  0  0  0  0  0  0  0
    3.7383  -51.2687  -25.0831 C   0  0  0  0  0  0  0  0  0  0  0  0
    2.4037  -50.8236  -25.6441 C   0  0  0  0  0  0  0  0  0  0  0  0
    2.5567  -50.7267  -27.0239 O   0  0  0  0  0  0  0  0  0  0  0  0
    1.5099  -51.9550  -25.2377 C   0  0  0  0  0  0  0  0  0  0  0  0
    0.2743  -51.4193  -24.8913 O   0  0  0  0  0  0  0  0  0  0  0  0
    1.7727  -51.1317  -27.4719 H   0  0  0  0  0  0  0  0  0  0  0  0
   -0.3669  -51.6567  -25.6125 H   0  0  0  0  0  0  0  0  0  0  0  0
   -1.6384  -53.5624  -19.5010 N   0  0  0  0  0  0  0  0  0  0  0  0
   -1.1710  -53.8152  -20.8239 C   0  0  0  0  0  0  0  0  0  0  0  0
   -1.7868  -54.7162  -21.6335 N   0  0  0  0  0  0  0  0  0  0  0  0
   -1.3524  -54.9619  -22.8852 C   0  0  0  0  0  0  0  0  0  0  0  0
   -0.2789  -54.3210  -23.3968 N   0  0  0  0  0  0  0  0  0  0  0  0
    0.3783  -53.4127  -22.6430 C   0  0  0  0  0  0  0  0  0  0  0  0
    1.4621  -52.6263  -22.8714 N   0  0  0  0  0  0  0  0  0  0  0  0
    1.6722  -51.9133  -21.7563 C   0  0  0  0  0  0  0  0  0  0  0  0
    0.7435  -52.2420  -20.8467 N   0  0  0  0  0  0  0  0  0  0  0  0
   -0.0751  -53.1680  -21.3609 C   0  0  0  0  0  0  0  0  0  0  0  0
   -1.8726  -52.5854  -19.2241 H   0  0  0  0  0  0  0  0  0  0  0  0
   -1.7545  -54.3276  -18.7964 H   0  0  0  0  0  0  0  0  0  0  0  0
    4.5776  -50.0363  -24.8756 C   0  0  0  0  0  0  0  0  0  0  0  0
    3.6909  -48.9730  -24.6479 O   0  0  0  0  0  0  0  0  0  0  0  0
    3.9253  -48.2904  -23.1249 P   0  0  0  0  0  0  0  0  0  0  0  0
    4.8171  -46.8665  -23.1838 O   0  0  0  0  0  0  0  0  0  0  0  0
    2.3863  -47.9073  -22.5085 O   0  0  0  0  0  0  0  0  0  0  0  0
    4.6307  -49.2428  -22.1881 O   0  0  0  0  0  0  0  0  0  0  0  0
    5.0070  -46.5565  -24.0987 H   0  0  0  0  0  0  0  0  0  0  0  0
    2.1772  -46.9650  -22.7258 H   0  0  0  0  0  0  0  0  0  0  0  0
 10 11  1  0  0  0
 11 12  2  0  0  0
 12 13  1  0  0  0
 13 14  2  0  0  0
 14 15  1  0  0  0
 15 16  1  0  0  0
 16 17  1  0  0  0
 17 18  2  0  0  0
 18 19  1  0  0  0
 16  1  1  0  0  0
  1  2  1  0  0  0
  2  3  1  0  0  0
  3 22  1  0  0  0
 22 23  1  0  0  0
 23 24  1  0  0  0
 24 25  1  0  0  0
 24 26  1  0  0  0
 24 27  2  0  0  0
  3  4  1  0  0  0
  4  5  1  0  0  0
  4  6  1  0  0  0
  6  7  1  0  0  0
 19 11  1  0  0  0
  6  1  1  0  0  0
 19 15  2  0  0  0
 10 20  1  0  0  0
 10 21  1  0  0  0
 25 28  1  0  0  0
 26 29  1  0  0  0
  5  8  1  0  0  0
  7  9  1  0  0  0
M  END
> <minimizedAffinity>
-5.87198

> <CNNscore>
0.6974127293

> <CNNaffinity>
4.7815990448

> <CNN_VS>
3.3347480297

> <CNNaffinity_variance>
0.3590402305

$$$$
[H]O[C@@]1([H])[C@]([H])(O[H])[C@@]([H])(C([H])([H])OP(=O)(O[H])O[H])O[C@@]1([H])n1c([H])nc2c(N([H])[H])nc([H])nc21


 29 31  0  0  0  0  0  0  0  0999 V2000
    1.7833  -51.5725  -20.8609 C   0  0  0  0  0  0  0  0  0  0  0  0
    2.2687  -51.8531  -19.5948 O   0  0  0  0  0  0  0  0  0  0  0  0
    2.4463  -50.6462  -18.9401 C   0  0  0  0  0  0  0  0  0  0  0  0
    1.2824  -49.7961  -19.4057 C   0  0  0  0  0  0  0  0  0  0  0  0
    1.6803  -48.4675  -19.2910 O   0  0  0  0  0  0  0  0  0  0  0  0
    1.1340  -50.2364  -20.8298 C   0  0  0  0  0  0  0  0  0  0  0  0
   -0.2240  -50.2670  -21.1275 O   0  0  0  0  0  0  0  0  0  0  0  0
    1.4077  -47.9705  -20.1023 H   0  0  0  0  0  0  0  0  0  0  0  0
   -0.4150  -49.5000  -21.7299 H   0  0  0  0  0  0  0  0  0  0  0  0
   -1.7679  -55.5623  -23.7804 N   0  0  0  0  0  0  0  0  0  0  0  0
   -0.9276  -54.4109  -23.7573 C   0  0  0  0  0  0  0  0  0  0  0  0
   -0.6664  -53.7008  -24.8861 N   0  0  0  0  0  0  0  0  0  0  0  0
    0.1266  -52.6114  -24.8742 C   0  0  0  0  0  0  0  0  0  0  0  0
    0.7022  -52.1715  -23.7341 N   0  0  0  0  0  0  0  0  0  0  0  0
    0.4827  -52.8331  -22.5769 C   0  0  0  0  0  0  0  0  0  0  0  0
    0.9093  -52.6404  -21.3017 N   0  0  0  0  0  0  0  0  0  0  0  0
    0.3706  -53.6146  -20.5556 C   0  0  0  0  0  0  0  0  0  0  0  0
   -0.3778  -54.4025  -21.3410 N   0  0  0  0  0  0  0  0  0  0  0  0
   -0.3320  -53.9490  -22.5997 C   0  0  0  0  0  0  0  0  0  0  0  0
   -2.5928  -55.6006  -23.1446 H   0  0  0  0  0  0  0  0  0  0  0  0
   -1.5835  -56.3728  -24.4164 H   0  0  0  0  0  0  0  0  0  0  0  0
    2.3456  -50.7740  -17.4436 C   0  0  0  0  0  0  0  0  0  0  0  0
    3.6151  -51.1518  -16.9805 O   0  0  0  0  0  0  0  0  0  0  0  0
    3.6135  -51.4035  -15.3140 P   0  0  0  0  0  0  0  0  0  0  0  0
    4.3137  -50.1317  -14.4664 O   0  0  0  0  0  0  0  0  0  0  0  0
    1.9863  -51.5103  -14.8280 O   0  0  0  0  0  0  0  0  0  0  0  0
    4.3451  -52.6711  -14.9395 O   0  0  0  0  0  0  0  0  0  0  0  0
    4.5474  -49.3606  -15.0322 H   0  0  0  0  0  0  0  0  0  0  0  0
    1.6778  -50.6170  -14.5354 H   0  0  0  0  0  0  0  0  0  0  0  0
 10 11  1  0  0  0
 11 12  2  0  0  0
 12 13  1  0  0  0
 13 14  2  0  0  0
 14 15  1  0  0  0
 15 16  1  0  0  0
 16 17  1  0  0  0
 17 18  2  0  0  0
 18 19  1  0  0  0
 16  1  1  0  0  0
  1  2  1  0  0  0
  2  3  1  0  0  0
  3 22  1  0  0  0
 22 23  1  0  0  0
 23 24  1  0  0  0
 24 25  1  0  0  0
 24 26  1  0  0  0
 24 27  2  0  0  0
  3  4  1  0  0  0
  4  5  1  0  0  0
  4  6  1  0  0  0
  6  7  1  0  0  0
 19 11  1  0  0  0
  6  1  1  0  0  0
 19 15  2  0  0  0
 10 20  1  0  0  0
 10 21  1  0  0  0
 25 28  1  0  0  0
 26 29  1  0  0  0
  5  8  1  0  0  0
  7  9  1  0  0  0
M  END
> <minimizedAffinity>
-6.81762

> <CNNscore>
0.6414906383

> <CNNaffinity>
4.6688179970

> <CNN_VS>
2.9950029850

> <CNNaffinity_variance>
0.2030802667

$$$$
[H]O[C@@]1([H])[C@]([H])(O[H])[C@@]([H])(C([H])([H])OP(=O)(O[H])O[H])O[C@@]1([H])n1c([H])nc2c(N([H])[H])nc([H])nc21


 29 31  0  0  0  0  0  0  0  0999 V2000
    2.4643  -50.9185  -23.4651 C   0  0  0  0  0  0  0  0  0  0  0  0
    2.1689  -50.1832  -24.6006 O   0  0  0  0  0  0  0  0  0  0  0  0
    3.3700  -49.7974  -25.1709 C   0  0  0  0  0  0  0  0  0  0  0  0
    4.2842  -50.9848  -24.9509 C   0  0  0  0  0  0  0  0  0  0  0  0
    5.5873  -50.4962  -24.9431 O   0  0  0  0  0  0  0  0  0  0  0  0
    3.8378  -51.4678  -23.6050 C   0  0  0  0  0  0  0  0  0  0  0  0
    3.8868  -52.8574  -23.6127 O   0  0  0  0  0  0  0  0  0  0  0  0
    6.0908  -50.9119  -24.1994 H   0  0  0  0  0  0  0  0  0  0  0  0
    4.6571  -53.1322  -23.0482 H   0  0  0  0  0  0  0  0  0  0  0  0
   -1.6740  -55.3749  -23.7275 N   0  0  0  0  0  0  0  0  0  0  0  0
   -0.6970  -54.5309  -24.3322 C   0  0  0  0  0  0  0  0  0  0  0  0
   -0.3974  -54.6270  -25.6541 N   0  0  0  0  0  0  0  0  0  0  0  0
    0.5245  -53.8339  -26.2345 C   0  0  0  0  0  0  0  0  0  0  0  0
    1.1976  -52.9011  -25.5262 N   0  0  0  0  0  0  0  0  0  0  0  0
    0.9464  -52.7546  -24.2069 C   0  0  0  0  0  0  0  0  0  0  0  0
    1.4468  -51.9275  -23.2526 N   0  0  0  0  0  0  0  0  0  0  0  0
    0.8231  -52.2286  -22.1053 C   0  0  0  0  0  0  0  0  0  0  0  0
   -0.0496  -53.2213  -22.3305 N   0  0  0  0  0  0  0  0  0  0  0  0
   -0.0007  -53.5728  -23.6213 C   0  0  0  0  0  0  0  0  0  0  0  0
   -2.4699  -54.9412  -23.2130 H   0  0  0  0  0  0  0  0  0  0  0  0
   -1.6184  -56.4185  -23.7831 H   0  0  0  0  0  0  0  0  0  0  0  0
    3.2655  -49.5735  -26.6558 C   0  0  0  0  0  0  0  0  0  0  0  0
    4.3856  -48.8178  -27.0339 O   0  0  0  0  0  0  0  0  0  0  0  0
    3.9335  -47.3452  -27.7177 P   0  0  0  0  0  0  0  0  0  0  0  0
    5.1076  -46.1567  -27.5306 O   0  0  0  0  0  0  0  0  0  0  0  0
    3.7336  -47.6114  -29.3864 O   0  0  0  0  0  0  0  0  0  0  0  0
    2.6458  -46.8249  -27.1232 O   0  0  0  0  0  0  0  0  0  0  0  0
    5.9466  -46.4883  -27.1362 H   0  0  0  0  0  0  0  0  0  0  0  0
    4.5779  -47.3895  -29.8518 H   0  0  0  0  0  0  0  0  0  0  0  0
 10 11  1  0  0  0
 11 12  2  0  0  0
 12 13  1  0  0  0
 13 14  2  0  0  0
 14 15  1  0  0  0
 15 16  1  0  0  0
 16 17  1  0  0  0
 17 18  2  0  0  0
 18 19  1  0  0  0
 16  1  1  0  0  0
  1  2  1  0  0  0
  2  3  1  0  0  0
  3 22  1  0  0  0
 22 23  1  0  0  0
 23 24  1  0  0  0
 24 25  1  0  0  0
 24 26  1  0  0  0
 24 27  2  0  0  0
  3  4  1  0  0  0
  4  5  1  0  0  0
  4  6  1  0  0  0
  6  7  1  0  0  0
 19 11  1  0  0  0
  6  1  1  0  0  0
 19 15  2  0  0  0
 10 20  1  0  0  0
 10 21  1  0  0  0
 25 28  1  0  0  0
 26 29  1  0  0  0
  5  8  1  0  0  0
  7  9  1  0  0  0
M  END
> <minimizedAffinity>
-5.99916

> <CNNscore>
0.5469639301

> <CNNaffinity>
4.9292383194

> <CNN_VS>
2.6961154938

> <CNNaffinity_variance>
0.4490903914

$$$$
[H]O[C@@]1([H])[C@]([H])(O[H])[C@@]([H])(C([H])([H])OP(=O)(O[H])O[H])O[C@@]1([H])n1c([H])nc2c(N([H])[H])nc([H])nc21


 29 31  0  0  0  0  0  0  0  0999 V2000
    0.9402  -53.6424  -25.3271 C   0  0  0  0  0  0  0  0  0  0  0  0
    2.2101  -53.3363  -25.7861 O   0  0  0  0  0  0  0  0  0  0  0  0
    2.1028  -53.0246  -27.1308 C   0  0  0  0  0  0  0  0  0  0  0  0
    0.7884  -52.2793  -27.2357 C   0  0  0  0  0  0  0  0  0  0  0  0
    0.3307  -52.4477  -28.5391 O   0  0  0  0  0  0  0  0  0  0  0  0
   -0.0524  -53.0012  -26.2278 C   0  0  0  0  0  0  0  0  0  0  0  0
   -0.8588  -52.0622  -25.5940 O   0  0  0  0  0  0  0  0  0  0  0  0
   -0.6373  -52.6534  -28.5246 H   0  0  0  0  0  0  0  0  0  0  0  0
   -1.7875  -52.1969  -25.9210 H   0  0  0  0  0  0  0  0  0  0  0  0
   -0.4946  -52.7837  -19.4741 N   0  0  0  0  0  0  0  0  0  0  0  0
   -0.6934  -53.4158  -20.7364 C   0  0  0  0  0  0  0  0  0  0  0  0
   -1.6709  -54.3419  -20.9195 N   0  0  0  0  0  0  0  0  0  0  0  0
   -1.8663  -54.9448  -22.1086 C   0  0  0  0  0  0  0  0  0  0  0  0
   -1.0962  -54.6557  -23.1802 N   0  0  0  0  0  0  0  0  0  0  0  0
   -0.1066  -53.7433  -23.0644 C   0  0  0  0  0  0  0  0  0  0  0  0
    0.8108  -53.2527  -23.9379 N   0  0  0  0  0  0  0  0  0  0  0  0
    1.5516  -52.3587  -23.2687 C   0  0  0  0  0  0  0  0  0  0  0  0
    1.1121  -52.2870  -22.0039 N   0  0  0  0  0  0  0  0  0  0  0  0
    0.0856  -53.1307  -21.8409 C   0  0  0  0  0  0  0  0  0  0  0  0
   -0.5082  -51.7429  -19.4207 H   0  0  0  0  0  0  0  0  0  0  0  0
   -0.3349  -53.3315  -18.5967 H   0  0  0  0  0  0  0  0  0  0  0  0
    3.1901  -52.0967  -27.6031 C   0  0  0  0  0  0  0  0  0  0  0  0
    2.7699  -50.7915  -27.3053 O   0  0  0  0  0  0  0  0  0  0  0  0
    3.6531  -50.1359  -26.0284 P   0  0  0  0  0  0  0  0  0  0  0  0
    2.6713  -49.4890  -24.8269 O   0  0  0  0  0  0  0  0  0  0  0  0
    4.5440  -51.4084  -25.3339 O   0  0  0  0  0  0  0  0  0  0  0  0
    4.5914  -49.0490  -26.4979 O   0  0  0  0  0  0  0  0  0  0  0  0
    1.7115  -49.6579  -24.9670 H   0  0  0  0  0  0  0  0  0  0  0  0
    4.0301  -51.7868  -24.5780 H   0  0  0  0  0  0  0  0  0  0  0  0
 10 11  1  0  0  0
 11 12  2  0  0  0
 12 13  1  0  0  0
 13 14  2  0  0  0
 14 15  1  0  0  0
 15 16  1  0  0  0
 16 17  1  0  0  0
 17 18  2  0  0  0
 18 19  1  0  0  0
 16  1  1  0  0  0
  1  2  1  0  0  0
  2  3  1  0  0  0
  3 22  1  0  0  0
 22 23  1  0  0  0
 23 24  1  0  0  0
 24 25  1  0  0  0
 24 26  1  0  0  0
 24 27  2  0  0  0
  3  4  1  0  0  0
  4  5  1  0  0  0
  4  6  1  0  0  0
  6  7  1  0  0  0
 19 11  1  0  0  0
  6  1  1  0  0  0
 19 15  2  0  0  0
 10 20  1  0  0  0
 10 21  1  0  0  0
 25 28  1  0  0  0
 26 29  1  0  0  0
  5  8  1  0  0  0
  7  9  1  0  0  0
M  END
> <minimizedAffinity>
-6.36973

> <CNNscore>
0.5279501677

> <CNNaffinity>
4.8075265884

> <CNN_VS>
2.5381345749

> <CNNaffinity_variance>
0.3509145379

$$$$
[H]O[C@@]1([H])[C@]([H])(O[H])[C@@]([H])(C([H])([H])OP(=O)(O[H])O[H])O[C@@]1([H])n1c([H])nc2c(N([H])[H])nc([H])nc21


 29 31  0  0  0  0  0  0  0  0999 V2000
   -0.5010  -52.7627  -23.3984 C   0  0  0  0  0  0  0  0  0  0  0  0
    0.3185  -52.2111  -22.4282 O   0  0  0  0  0  0  0  0  0  0  0  0
   -0.1384  -52.6517  -21.1977 C   0  0  0  0  0  0  0  0  0  0  0  0
   -0.5749  -54.0794  -21.4530 C   0  0  0  0  0  0  0  0  0  0  0  0
   -1.5416  -54.3836  -20.4991 O   0  0  0  0  0  0  0  0  0  0  0  0
   -1.1369  -53.9831  -22.8382 C   0  0  0  0  0  0  0  0  0  0  0  0
   -0.8025  -55.1501  -23.5163 O   0  0  0  0  0  0  0  0  0  0  0  0
   -2.2940  -54.8589  -20.9322 H   0  0  0  0  0  0  0  0  0  0  0  0
   -1.6326  -55.6878  -23.6129 H   0  0  0  0  0  0  0  0  0  0  0  0
    1.6654  -53.5319  -29.0347 N   0  0  0  0  0  0  0  0  0  0  0  0
    0.6082  -53.2374  -28.1248 C   0  0  0  0  0  0  0  0  0  0  0  0
   -0.6465  -52.9544  -28.5632 N   0  0  0  0  0  0  0  0  0  0  0  0
   -1.6521  -52.6746  -27.7110 C   0  0  0  0  0  0  0  0  0  0  0  0
   -1.4596  -52.6624  -26.3740 N   0  0  0  0  0  0  0  0  0  0  0  0
   -0.2349  -52.9354  -25.8733 C   0  0  0  0  0  0  0  0  0  0  0  0
    0.2585  -52.9989  -24.6092 N   0  0  0  0  0  0  0  0  0  0  0  0
    1.5567  -53.3160  -24.7095 C   0  0  0  0  0  0  0  0  0  0  0  0
    1.8744  -53.4494  -26.0053 N   0  0  0  0  0  0  0  0  0  0  0  0
    0.7895  -53.2210  -26.7555 C   0  0  0  0  0  0  0  0  0  0  0  0
    2.1920  -54.4249  -28.9280 H   0  0  0  0  0  0  0  0  0  0  0  0
    1.9312  -52.8794  -29.8086 H   0  0  0  0  0  0  0  0  0  0  0  0
    0.9442  -52.6877  -20.1523 C   0  0  0  0  0  0  0  0  0  0  0  0
    0.3783  -52.2042  -18.9628 O   0  0  0  0  0  0  0  0  0  0  0  0
    1.3046  -50.9620  -18.3000 P   0  0  0  0  0  0  0  0  0  0  0  0
    1.2018  -49.5354  -19.1834 O   0  0  0  0  0  0  0  0  0  0  0  0
    0.6821  -50.6505  -16.7473 O   0  0  0  0  0  0  0  0  0  0  0  0
    2.7629  -51.3440  -18.2011 O   0  0  0  0  0  0  0  0  0  0  0  0
    0.5440  -49.5700  -19.9152 H   0  0  0  0  0  0  0  0  0  0  0  0
    0.0225  -49.9156  -16.8058 H   0  0  0  0  0  0  0  0  0  0  0  0
 10 11  1  0  0  0
 11 12  2  0  0  0
 12 13  1  0  0  0
 13 14  2  0  0  0
 14 15  1  0  0  0
 15 16  1  0  0  0
 16 17  1  0  0  0
 17 18  2  0  0  0
 18 19  1  0  0  0
 16  1  1  0  0  0
  1  2  1  0  0  0
  2  3  1  0  0  0
  3 22  1  0  0  0
 22 23  1  0  0  0
 23 24  1  0  0  0
 24 25  1  0  0  0
 24 26  1  0  0  0
 24 27  2  0  0  0
  3  4  1  0  0  0
  4  5  1  0  0  0
  4  6  1  0  0  0
  6  7  1  0  0  0
 19 11  1  0  0  0
  6  1  1  0  0  0
 19 15  2  0  0  0
 10 20  1  0  0  0
 10 21  1  0  0  0
 25 28  1  0  0  0
 26 29  1  0  0  0
  5  8  1  0  0  0
  7  9  1  0  0  0
M  END
> <minimizedAffinity>
-7.30148

> <CNNscore>
0.5214170218

> <CNNaffinity>
5.1012768745

> <CNN_VS>
2.6598925591

> <CNNaffinity_variance>
0.3138783574

$$$$
[H]c1nc(OC2([H])C([H])([H])C([H])([H])OC([H])([H])C2([H])[H])c(N2C([H])([H])C([H])([H])OC([H])([H])C2([H])[H])c([H])c1-c1c(C([H])([H])[H])nc([H])c(N([H])C(=O)c2c([H])c([H])c([H])c(C(F)(F)F)c2[H])c1[H]


 40 44  0  0  0  0  0  0  0  0999 V2000
   -1.1278  -53.0475  -18.1065 C   0  0  0  0  0  0  0  0  0  0  0  0
   -0.7839  -53.0053  -19.5549 C   0  0  0  0  0  0  0  0  0  0  0  0
   -1.3635  -53.9282  -20.3716 N   0  0  0  0  0  0  0  0  0  0  0  0
   -1.1627  -53.9899  -21.6910 C   0  0  0  0  0  0  0  0  0  0  0  0
   -0.3155  -53.0798  -22.3508 C   0  0  0  0  0  0  0  0  0  0  0  0
    0.2671  -52.1576  -21.5471 C   0  0  0  0  0  0  0  0  0  0  0  0
    0.0437  -52.1083  -20.1490 C   0  0  0  0  0  0  0  0  0  0  0  0
    0.6942  -51.0492  -19.4108 C   0  0  0  0  0  0  0  0  0  0  0  0
    0.9186  -49.8247  -20.0626 C   0  0  0  0  0  0  0  0  0  0  0  0
    1.5261  -48.8207  -19.4240 N   0  0  0  0  0  0  0  0  0  0  0  0
    1.9373  -48.9356  -18.1582 C   0  0  0  0  0  0  0  0  0  0  0  0
    1.7327  -50.1137  -17.4918 C   0  0  0  0  0  0  0  0  0  0  0  0
    1.1130  -51.1657  -18.1250 C   0  0  0  0  0  0  0  0  0  0  0  0
    2.1651  -50.2140  -16.1108 N   0  0  0  0  0  0  0  0  0  0  0  0
    1.2942  -49.7373  -15.0938 C   0  0  0  0  0  0  0  0  0  0  0  0
    1.8637  -49.7800  -13.6978 C   0  0  0  0  0  0  0  0  0  0  0  0
    3.2698  -49.6241  -13.7961 O   0  0  0  0  0  0  0  0  0  0  0  0
    3.7313  -50.8093  -14.3620 C   0  0  0  0  0  0  0  0  0  0  0  0
    3.4317  -50.8525  -15.8450 C   0  0  0  0  0  0  0  0  0  0  0  0
    2.5693  -47.8857  -17.4876 O   0  0  0  0  0  0  0  0  0  0  0  0
    3.9519  -47.6377  -17.6554 C   0  0  0  0  0  0  0  0  0  0  0  0
    4.0078  -46.5098  -18.7107 C   0  0  0  0  0  0  0  0  0  0  0  0
    3.4346  -45.2654  -18.0819 C   0  0  0  0  0  0  0  0  0  0  0  0
    4.0857  -44.8979  -16.9055 O   0  0  0  0  0  0  0  0  0  0  0  0
    5.1721  -45.7373  -16.6594 C   0  0  0  0  0  0  0  0  0  0  0  0
    4.6765  -47.1549  -16.4600 C   0  0  0  0  0  0  0  0  0  0  0  0
   -0.1774  -53.1529  -23.7611 N   0  0  0  0  0  0  0  0  0  0  0  0
    0.9361  -52.8746  -24.5463 C   0  0  0  0  0  0  0  0  0  0  0  0
    2.0280  -52.5159  -24.0404 O   0  0  0  0  0  0  0  0  0  0  0  0
   -1.0485  -53.4740  -24.3127 H   0  0  0  0  0  0  0  0  0  0  0  0
    0.8667  -52.9913  -26.0198 C   0  0  0  0  0  0  0  0  0  0  0  0
    2.0303  -53.2727  -26.7237 C   0  0  0  0  0  0  0  0  0  0  0  0
    2.0003  -53.3624  -28.0963 C   0  0  0  0  0  0  0  0  0  0  0  0
    0.8293  -53.1783  -28.8123 C   0  0  0  0  0  0  0  0  0  0  0  0
   -0.3253  -52.8988  -28.1245 C   0  0  0  0  0  0  0  0  0  0  0  0
   -0.2762  -52.8136  -26.7451 C   0  0  0  0  0  0  0  0  0  0  0  0
   -1.5948  -52.6760  -28.8619 C   0  0  0  0  0  0  0  0  0  0  0  0
   -1.4898  -51.5049  -29.5945 F   0  0  0  0  0  0  0  0  0  0  0  0
   -1.7993  -53.6883  -29.7597 F   0  0  0  0  0  0  0  0  0  0  0  0
   -2.6468  -52.5383  -27.9627 F   0  0  0  0  0  0  0  0  0  0  0  0
  1  2  1  0  0  0
  2  3  2  0  0  0
  3  4  1  0  0  0
  4  5  2  0  0  0
  5 27  1  0  0  0
 27 28  1  0  0  0
 28 29  2  0  0  0
 28 31  1  0  0  0
 31 32  2  0  0  0
 32 33  1  0  0  0
 33 34  2  0  0  0
 34 35  1  0  0  0
 35 36  2  0  0  0
 35 37  1  0  0  0
 37 38  1  0  0  0
 37 39  1  0  0  0
 37 40  1  0  0  0
  5  6  1  0  0  0
  6  7  2  0  0  0
  7  8  1  0  0  0
  8  9  2  0  0  0
  9 10  1  0  0  0
 10 11  2  0  0  0
 11 20  1  0  0  0
 20 21  1  0  0  0
 21 22  1  0  0  0
 22 23  1  0  0  0
 23 24  1  0  0  0
 24 25  1  0  0  0
 25 26  1  0  0  0
 11 12  1  0  0  0
 12 13  2  0  0  0
 12 14  1  0  0  0
 14 15  1  0  0  0
 15 16  1  0  0  0
 16 17  1  0  0  0
 17 18  1  0  0  0
 18 19  1  0  0  0
  7  2  1  0  0  0
 13  8  1  0  0  0
 19 14  1  0  0  0
 36 31  1  0  0  0
 26 21  1  0  0  0
 27 30  1  0  0  0
M  END
> <minimizedAffinity>
-8.38421

> <CNNscore>
0.5037876368

> <CNNaffinity>
7.0834569931

> <CNN_VS>
3.5685579777

> <CNNaffinity_variance>
0.2083527297

$$$$
[H]c1nc(OC2([H])C([H])([H])C([H])([H])OC([H])([H])C2([H])[H])c(N2C([H])([H])C([H])([H])OC([H])([H])C2([H])[H])c([H])c1-c1c(C([H])([H])[H])nc([H])c(N([H])C(=O)c2c([H])c([H])c([H])c(C(F)(F)F)c2[H])c1[H]


 40 44  0  0  0  0  0  0  0  0999 V2000
   -1.4400  -53.0535  -17.8394 C   0  0  0  0  0  0  0  0  0  0  0  0
   -1.0019  -53.0328  -19.2627 C   0  0  0  0  0  0  0  0  0  0  0  0
   -1.5629  -53.9373  -20.1123 N   0  0  0  0  0  0  0  0  0  0  0  0
   -1.2798  -54.0141  -21.4157 C   0  0  0  0  0  0  0  0  0  0  0  0
   -0.3572  -53.1410  -22.0221 C   0  0  0  0  0  0  0  0  0  0  0  0
    0.2076  -52.2374  -21.1852 C   0  0  0  0  0  0  0  0  0  0  0  0
   -0.1036  -52.1716  -19.8047 C   0  0  0  0  0  0  0  0  0  0  0  0
    0.5385  -51.1343  -19.0292 C   0  0  0  0  0  0  0  0  0  0  0  0
    0.0257  -50.8435  -17.7537 C   0  0  0  0  0  0  0  0  0  0  0  0
    0.5795  -49.8855  -17.0049 N   0  0  0  0  0  0  0  0  0  0  0  0
    1.6291  -49.1764  -17.4295 C   0  0  0  0  0  0  0  0  0  0  0  0
    2.1561  -49.4349  -18.6661 C   0  0  0  0  0  0  0  0  0  0  0  0
    1.6043  -50.4128  -19.4603 C   0  0  0  0  0  0  0  0  0  0  0  0
    3.3096  -48.6711  -19.1024 N   0  0  0  0  0  0  0  0  0  0  0  0
    4.6013  -49.2358  -18.9219 C   0  0  0  0  0  0  0  0  0  0  0  0
    5.7483  -48.3334  -19.3026 C   0  0  0  0  0  0  0  0  0  0  0  0
    5.3368  -46.9929  -19.0909 O   0  0  0  0  0  0  0  0  0  0  0  0
    4.3923  -46.7386  -20.0814 C   0  0  0  0  0  0  0  0  0  0  0  0
    3.0736  -47.4056  -19.7546 C   0  0  0  0  0  0  0  0  0  0  0  0
    2.2119  -48.1770  -16.6466 O   0  0  0  0  0  0  0  0  0  0  0  0
    3.0765  -48.4990  -15.5742 C   0  0  0  0  0  0  0  0  0  0  0  0
    4.1760  -47.4145  -15.6370 C   0  0  0  0  0  0  0  0  0  0  0  0
    3.5398  -46.0959  -15.2777 C   0  0  0  0  0  0  0  0  0  0  0  0
    2.9095  -46.1140  -14.0346 O   0  0  0  0  0  0  0  0  0  0  0  0
    3.1109  -47.3378  -13.3964 C   0  0  0  0  0  0  0  0  0  0  0  0
    2.4835  -48.4433  -14.2205 C   0  0  0  0  0  0  0  0  0  0  0  0
   -0.1312  -53.2272  -23.4202 N   0  0  0  0  0  0  0  0  0  0  0  0
    0.4551  -52.2960  -24.2705 C   0  0  0  0  0  0  0  0  0  0  0  0
    0.8951  -51.1992  -23.8458 O   0  0  0  0  0  0  0  0  0  0  0  0
   -0.4481  -54.1402  -23.9022 H   0  0  0  0  0  0  0  0  0  0  0  0
    0.5775  -52.5712  -25.7192 C   0  0  0  0  0  0  0  0  0  0  0  0
    1.8299  -52.8701  -26.2395 C   0  0  0  0  0  0  0  0  0  0  0  0
    1.9777  -53.1060  -27.5869 C   0  0  0  0  0  0  0  0  0  0  0  0
    0.9016  -53.0542  -28.4571 C   0  0  0  0  0  0  0  0  0  0  0  0
   -0.3398  -52.7582  -27.9514 C   0  0  0  0  0  0  0  0  0  0  0  0
   -0.4693  -52.5254  -26.5944 C   0  0  0  0  0  0  0  0  0  0  0  0
   -1.5120  -52.6750  -28.8591 C   0  0  0  0  0  0  0  0  0  0  0  0
   -1.4248  -51.5079  -29.6005 F   0  0  0  0  0  0  0  0  0  0  0  0
   -1.4898  -53.7134  -29.7500 F   0  0  0  0  0  0  0  0  0  0  0  0
   -2.6858  -52.6349  -28.1142 F   0  0  0  0  0  0  0  0  0  0  0  0
  1  2  1  0  0  0
  2  3  2  0  0  0
  3  4  1  0  0  0
  4  5  2  0  0  0
  5 27  1  0  0  0
 27 28  1  0  0  0
 28 29  2  0  0  0
 28 31  1  0  0  0
 31 32  2  0  0  0
 32 33  1  0  0  0
 33 34  2  0  0  0
 34 35  1  0  0  0
 35 36  2  0  0  0
 35 37  1  0  0  0
 37 38  1  0  0  0
 37 39  1  0  0  0
 37 40  1  0  0  0
  5  6  1  0  0  0
  6  7  2  0  0  0
  7  8  1  0  0  0
  8  9  2  0  0  0
  9 10  1  0  0  0
 10 11  2  0  0  0
 11 20  1  0  0  0
 20 21  1  0  0  0
 21 22  1  0  0  0
 22 23  1  0  0  0
 23 24  1  0  0  0
 24 25  1  0  0  0
 25 26  1  0  0  0
 11 12  1  0  0  0
 12 13  2  0  0  0
 12 14  1  0  0  0
 14 15  1  0  0  0
 15 16  1  0  0  0
 16 17  1  0  0  0
 17 18  1  0  0  0
 18 19  1  0  0  0
  7  2  1  0  0  0
 13  8  1  0  0  0
 19 14  1  0  0  0
 36 31  1  0  0  0
 26 21  1  0  0  0
 27 30  1  0  0  0
M  END
> <minimizedAffinity>
-8.45515

> <CNNscore>
0.4519735575

> <CNNaffinity>
7.0634689331

> <CNN_VS>
3.1925010681

> <CNNaffinity_variance>
0.2081241310

$$$$
[H]c1nc(OC2([H])C([H])([H])C([H])([H])OC([H])([H])C2([H])[H])c(N2C([H])([H])C([H])([H])OC([H])([H])C2([H])[H])c([H])c1-c1c(C([H])([H])[H])nc([H])c(N([H])C(=O)c2c([H])c([H])c([H])c(C(F)(F)F)c2[H])c1[H]


 40 44  0  0  0  0  0  0  0  0999 V2000
   -1.3807  -53.0441  -17.8492 C   0  0  0  0  0  0  0  0  0  0  0  0
   -0.9361  -53.0509  -19.2705 C   0  0  0  0  0  0  0  0  0  0  0  0
   -1.6332  -53.8231  -20.1495 N   0  0  0  0  0  0  0  0  0  0  0  0
   -1.3584  -53.9042  -21.4544 C   0  0  0  0  0  0  0  0  0  0  0  0
   -0.3006  -53.1765  -22.0314 C   0  0  0  0  0  0  0  0  0  0  0  0
    0.4002  -52.4056  -21.1651 C   0  0  0  0  0  0  0  0  0  0  0  0
    0.0954  -52.3331  -19.7836 C   0  0  0  0  0  0  0  0  0  0  0  0
    0.8948  -51.4410  -18.9743 C   0  0  0  0  0  0  0  0  0  0  0  0
    2.1702  -51.0817  -19.4421 C   0  0  0  0  0  0  0  0  0  0  0  0
    2.9493  -50.2685  -18.7232 N   0  0  0  0  0  0  0  0  0  0  0  0
    2.5542  -49.7686  -17.5492 C   0  0  0  0  0  0  0  0  0  0  0  0
    1.3165  -50.0955  -17.0643 C   0  0  0  0  0  0  0  0  0  0  0  0
    0.4943  -50.9334  -17.7809 C   0  0  0  0  0  0  0  0  0  0  0  0
    0.8943  -49.5260  -15.7988 N   0  0  0  0  0  0  0  0  0  0  0  0
   -0.1252  -48.5359  -15.8101 C   0  0  0  0  0  0  0  0  0  0  0  0
   -0.4283  -47.9202  -14.4670 C   0  0  0  0  0  0  0  0  0  0  0  0
    0.7617  -47.9488  -13.6962 O   0  0  0  0  0  0  0  0  0  0  0  0
    0.9676  -49.2909  -13.3894 C   0  0  0  0  0  0  0  0  0  0  0  0
    1.4913  -50.0460  -14.5922 C   0  0  0  0  0  0  0  0  0  0  0  0
    3.3658  -48.9151  -16.7979 O   0  0  0  0  0  0  0  0  0  0  0  0
    3.5978  -47.5803  -17.2049 C   0  0  0  0  0  0  0  0  0  0  0  0
    3.1394  -46.7321  -15.9968 C   0  0  0  0  0  0  0  0  0  0  0  0
    4.0977  -46.9944  -14.8631 C   0  0  0  0  0  0  0  0  0  0  0  0
    5.4252  -46.7324  -15.1979 O   0  0  0  0  0  0  0  0  0  0  0  0
    5.5145  -46.2020  -16.4848 C   0  0  0  0  0  0  0  0  0  0  0  0
    5.0046  -47.2199  -17.4842 C   0  0  0  0  0  0  0  0  0  0  0  0
   -0.0830  -53.2546  -23.4313 N   0  0  0  0  0  0  0  0  0  0  0  0
    0.4697  -52.3059  -24.2847 C   0  0  0  0  0  0  0  0  0  0  0  0
    0.8813  -51.1974  -23.8619 O   0  0  0  0  0  0  0  0  0  0  0  0
   -0.3773  -54.1757  -23.9121 H   0  0  0  0  0  0  0  0  0  0  0  0
    0.5887  -52.5757  -25.7348 C   0  0  0  0  0  0  0  0  0  0  0  0
    1.8422  -52.8585  -26.2615 C   0  0  0  0  0  0  0  0  0  0  0  0
    1.9866  -53.0890  -27.6103 C   0  0  0  0  0  0  0  0  0  0  0  0
    0.9060  -53.0475  -28.4754 C   0  0  0  0  0  0  0  0  0  0  0  0
   -0.3365  -52.7675  -27.9633 C   0  0  0  0  0  0  0  0  0  0  0  0
   -0.4625  -52.5399  -26.6050 C   0  0  0  0  0  0  0  0  0  0  0  0
   -1.5137  -52.6956  -28.8654 C   0  0  0  0  0  0  0  0  0  0  0  0
   -1.4380  -51.5308  -29.6117 F   0  0  0  0  0  0  0  0  0  0  0  0
   -1.4889  -53.7372  -29.7526 F   0  0  0  0  0  0  0  0  0  0  0  0
   -2.6840  -52.6605  -28.1148 F   0  0  0  0  0  0  0  0  0  0  0  0
  1  2  1  0  0  0
  2  3  2  0  0  0
  3  4  1  0  0  0
  4  5  2  0  0  0
  5 27  1  0  0  0
 27 28  1  0  0  0
 28 29  2  0  0  0
 28 31  1  0  0  0
 31 32  2  0  0  0
 32 33  1  0  0  0
 33 34  2  0  0  0
 34 35  1  0  0  0
 35 36  2  0  0  0
 35 37  1  0  0  0
 37 38  1  0  0  0
 37 39  1  0  0  0
 37 40  1  0  0  0
  5  6  1  0  0  0
  6  7  2  0  0  0
  7  8  1  0  0  0
  8  9  2  0  0  0
  9 10  1  0  0  0
 10 11  2  0  0  0
 11 20  1  0  0  0
 20 21  1  0  0  0
 21 22  1  0  0  0
 22 23  1  0  0  0
 23 24  1  0  0  0
 24 25  1  0  0  0
 25 26  1  0  0  0
 11 12  1  0  0  0
 12 13  2  0  0  0
 12 14  1  0  0  0
 14 15  1  0  0  0
 15 16  1  0  0  0
 16 17  1  0  0  0
 17 18  1  0  0  0
 18 19  1  0  0  0
  7  2  1  0  0  0
 13  8  1  0  0  0
 19 14  1  0  0  0
 36 31  1  0  0  0
 26 21  1  0  0  0
 27 30  1  0  0  0
M  END
> <minimizedAffinity>
-8.30050

> <CNNscore>
0.4371251166

> <CNNaffinity>
7.0106954575

> <CNN_VS>
3.0645511150

> <CNNaffinity_variance>
0.2459135354

$$$$
[H]c1nc(OC2([H])C([H])([H])C([H])([H])OC([H])([H])C2([H])[H])c(N2C([H])([H])C([H])([H])OC([H])([H])C2([H])[H])c([H])c1-c1c(C([H])([H])[H])nc([H])c(N([H])C(=O)c2c([H])c([H])c([H])c(C(F)(F)F)c2[H])c1[H]


 40 44  0  0  0  0  0  0  0  0999 V2000
   -0.9436  -52.7957  -17.2525 C   0  0  0  0  0  0  0  0  0  0  0  0
   -0.8240  -52.7602  -18.7366 C   0  0  0  0  0  0  0  0  0  0  0  0
   -1.6918  -53.5194  -19.4612 N   0  0  0  0  0  0  0  0  0  0  0  0
   -1.7115  -53.5635  -20.7963 C   0  0  0  0  0  0  0  0  0  0  0  0
   -0.8132  -52.8068  -21.5720 C   0  0  0  0  0  0  0  0  0  0  0  0
    0.0554  -52.0484  -20.8606 C   0  0  0  0  0  0  0  0  0  0  0  0
    0.0629  -52.0152  -19.4444 C   0  0  0  0  0  0  0  0  0  0  0  0
    1.0142  -51.1330  -18.8069 C   0  0  0  0  0  0  0  0  0  0  0  0
    2.1958  -50.8173  -19.4988 C   0  0  0  0  0  0  0  0  0  0  0  0
    3.1092  -50.0147  -18.9451 N   0  0  0  0  0  0  0  0  0  0  0  0
    2.9395  -49.4848  -17.7307 C   0  0  0  0  0  0  0  0  0  0  0  0
    1.7989  -49.7690  -17.0292 C   0  0  0  0  0  0  0  0  0  0  0  0
    0.8428  -50.5950  -17.5726 C   0  0  0  0  0  0  0  0  0  0  0  0
    1.6203  -49.1674  -15.7214 N   0  0  0  0  0  0  0  0  0  0  0  0
    0.8006  -48.0112  -15.6158 C   0  0  0  0  0  0  0  0  0  0  0  0
    0.7550  -47.3876  -14.2433 C   0  0  0  0  0  0  0  0  0  0  0  0
    1.9940  -47.6487  -13.6048 O   0  0  0  0  0  0  0  0  0  0  0  0
    1.9854  -49.0137  -13.3321 C   0  0  0  0  0  0  0  0  0  0  0  0
    2.2362  -49.8176  -14.5898 C   0  0  0  0  0  0  0  0  0  0  0  0
    3.8917  -48.6424  -17.1516 O   0  0  0  0  0  0  0  0  0  0  0  0
    3.9538  -47.2695  -17.4868 C   0  0  0  0  0  0  0  0  0  0  0  0
    5.4675  -46.9738  -17.5883 C   0  0  0  0  0  0  0  0  0  0  0  0
    6.0006  -47.7193  -18.7851 C   0  0  0  0  0  0  0  0  0  0  0  0
    5.3366  -47.3998  -19.9683 O   0  0  0  0  0  0  0  0  0  0  0  0
    4.3973  -46.3920  -19.7508 C   0  0  0  0  0  0  0  0  0  0  0  0
    3.3455  -46.8866  -18.7793 C   0  0  0  0  0  0  0  0  0  0  0  0
   -0.9097  -52.8463  -22.9870 N   0  0  0  0  0  0  0  0  0  0  0  0
   -0.2195  -52.0949  -23.9320 C   0  0  0  0  0  0  0  0  0  0  0  0
    0.6433  -51.2456  -23.5984 O   0  0  0  0  0  0  0  0  0  0  0  0
   -1.6077  -53.5588  -23.4008 H   0  0  0  0  0  0  0  0  0  0  0  0
   -0.4858  -52.2732  -25.3766 C   0  0  0  0  0  0  0  0  0  0  0  0
   -1.7642  -52.0210  -25.8569 C   0  0  0  0  0  0  0  0  0  0  0  0
   -2.0469  -52.2023  -27.1912 C   0  0  0  0  0  0  0  0  0  0  0  0
   -1.0837  -52.6354  -28.0869 C   0  0  0  0  0  0  0  0  0  0  0  0
    0.1824  -52.8881  -27.6203 C   0  0  0  0  0  0  0  0  0  0  0  0
    0.4484  -52.6991  -26.2765 C   0  0  0  0  0  0  0  0  0  0  0  0
    1.2344  -53.3728  -28.5496 C   0  0  0  0  0  0  0  0  0  0  0  0
    1.3943  -54.7378  -28.3754 F   0  0  0  0  0  0  0  0  0  0  0  0
    0.8391  -53.1821  -29.8457 F   0  0  0  0  0  0  0  0  0  0  0  0
    2.4438  -52.7491  -28.2623 F   0  0  0  0  0  0  0  0  0  0  0  0
  1  2  1  0  0  0
  2  3  2  0  0  0
  3  4  1  0  0  0
  4  5  2  0  0  0
  5 27  1  0  0  0
 27 28  1  0  0  0
 28 29  2  0  0  0
 28 31  1  0  0  0
 31 32  2  0  0  0
 32 33  1  0  0  0
 33 34  2  0  0  0
 34 35  1  0  0  0
 35 36  2  0  0  0
 35 37  1  0  0  0
 37 38  1  0  0  0
 37 39  1  0  0  0
 37 40  1  0  0  0
  5  6  1  0  0  0
  6  7  2  0  0  0
  7  8  1  0  0  0
  8  9  2  0  0  0
  9 10  1  0  0  0
 10 11  2  0  0  0
 11 20  1  0  0  0
 20 21  1  0  0  0
 21 22  1  0  0  0
 22 23  1  0  0  0
 23 24  1  0  0  0
 24 25  1  0  0  0
 25 26  1  0  0  0
 11 12  1  0  0  0
 12 13  2  0  0  0
 12 14  1  0  0  0
 14 15  1  0  0  0
 15 16  1  0  0  0
 16 17  1  0  0  0
 17 18  1  0  0  0
 18 19  1  0  0  0
  7  2  1  0  0  0
 13  8  1  0  0  0
 19 14  1  0  0  0
 36 31  1  0  0  0
 26 21  1  0  0  0
 27 30  1  0  0  0
M  END
> <minimizedAffinity>
-7.79100

> <CNNscore>
0.4049442708

> <CNNaffinity>
7.0200171471

> <CNN_VS>
2.8427157402

> <CNNaffinity_variance>
0.3993588090

$$$$
[H]c1nc(OC2([H])C([H])([H])C([H])([H])OC([H])([H])C2([H])[H])c(N2C([H])([H])C([H])([H])OC([H])([H])C2([H])[H])c([H])c1-c1c(C([H])([H])[H])nc([H])c(N([H])C(=O)c2c([H])c([H])c([H])c(C(F)(F)F)c2[H])c1[H]


 40 44  0  0  0  0  0  0  0  0999 V2000
   -1.0603  -51.9375  -16.1397 C   0  0  0  0  0  0  0  0  0  0  0  0
   -0.7404  -52.1593  -17.5772 C   0  0  0  0  0  0  0  0  0  0  0  0
   -1.4871  -53.0709  -18.2599 N   0  0  0  0  0  0  0  0  0  0  0  0
   -1.3239  -53.3506  -19.5561 C   0  0  0  0  0  0  0  0  0  0  0  0
   -0.3427  -52.7048  -20.3315 C   0  0  0  0  0  0  0  0  0  0  0  0
    0.4066  -51.7962  -19.6615 C   0  0  0  0  0  0  0  0  0  0  0  0
    0.2205  -51.5135  -18.2859 C   0  0  0  0  0  0  0  0  0  0  0  0
    1.0594  -50.4927  -17.6995 C   0  0  0  0  0  0  0  0  0  0  0  0
    2.3318  -50.2772  -18.2554 C   0  0  0  0  0  0  0  0  0  0  0  0
    3.1464  -49.3519  -17.7402 N   0  0  0  0  0  0  0  0  0  0  0  0
    2.7905  -48.6028  -16.6930 C   0  0  0  0  0  0  0  0  0  0  0  0
    1.5570  -48.7842  -16.1280 C   0  0  0  0  0  0  0  0  0  0  0  0
    0.6987  -49.7318  -16.6350 C   0  0  0  0  0  0  0  0  0  0  0  0
    1.1777  -47.9469  -15.0058 N   0  0  0  0  0  0  0  0  0  0  0  0
    0.0861  -47.0517  -15.1693 C   0  0  0  0  0  0  0  0  0  0  0  0
   -0.1730  -46.1437  -13.9931 C   0  0  0  0  0  0  0  0  0  0  0  0
    1.0647  -45.9118  -13.3409 O   0  0  0  0  0  0  0  0  0  0  0  0
    1.3942  -47.1228  -12.7387 C   0  0  0  0  0  0  0  0  0  0  0  0
    1.8929  -48.1182  -13.7640 C   0  0  0  0  0  0  0  0  0  0  0  0
    3.6393  -47.6324  -16.1552 O   0  0  0  0  0  0  0  0  0  0  0  0
    4.3247  -46.7174  -16.9884 C   0  0  0  0  0  0  0  0  0  0  0  0
    3.3997  -45.4798  -17.0313 C   0  0  0  0  0  0  0  0  0  0  0  0
    3.3928  -44.8652  -15.6548 C   0  0  0  0  0  0  0  0  0  0  0  0
    4.6674  -44.5355  -15.1972 O   0  0  0  0  0  0  0  0  0  0  0  0
    5.6244  -44.7802  -16.1819 C   0  0  0  0  0  0  0  0  0  0  0  0
    5.6455  -46.2600  -16.5052 C   0  0  0  0  0  0  0  0  0  0  0  0
   -0.2448  -52.9974  -21.7165 N   0  0  0  0  0  0  0  0  0  0  0  0
   -0.8381  -54.0286  -22.4365 C   0  0  0  0  0  0  0  0  0  0  0  0
   -1.5973  -54.8653  -21.8882 O   0  0  0  0  0  0  0  0  0  0  0  0
    0.3671  -52.3307  -22.3058 H   0  0  0  0  0  0  0  0  0  0  0  0
   -0.5878  -54.1751  -23.8876 C   0  0  0  0  0  0  0  0  0  0  0  0
   -0.4773  -55.4523  -24.4214 C   0  0  0  0  0  0  0  0  0  0  0  0
   -0.2201  -55.6184  -25.7628 C   0  0  0  0  0  0  0  0  0  0  0  0
   -0.0646  -54.5367  -26.6133 C   0  0  0  0  0  0  0  0  0  0  0  0
   -0.1712  -53.2705  -26.0937 C   0  0  0  0  0  0  0  0  0  0  0  0
   -0.4312  -53.1231  -24.7435 C   0  0  0  0  0  0  0  0  0  0  0  0
    0.0097  -52.0880  -26.9735 C   0  0  0  0  0  0  0  0  0  0  0  0
    1.3650  -51.8592  -27.1466 F   0  0  0  0  0  0  0  0  0  0  0  0
   -0.5110  -52.3420  -28.2132 F   0  0  0  0  0  0  0  0  0  0  0  0
   -0.5525  -50.9642  -26.3776 F   0  0  0  0  0  0  0  0  0  0  0  0
  1  2  1  0  0  0
  2  3  2  0  0  0
  3  4  1  0  0  0
  4  5  2  0  0  0
  5 27  1  0  0  0
 27 28  1  0  0  0
 28 29  2  0  0  0
 28 31  1  0  0  0
 31 32  2  0  0  0
 32 33  1  0  0  0
 33 34  2  0  0  0
 34 35  1  0  0  0
 35 36  2  0  0  0
 35 37  1  0  0  0
 37 38  1  0  0  0
 37 39  1  0  0  0
 37 40  1  0  0  0
  5  6  1  0  0  0
  6  7  2  0  0  0
  7  8  1  0  0  0
  8  9  2  0  0  0
  9 10  1  0  0  0
 10 11  2  0  0  0
 11 20  1  0  0  0
 20 21  1  0  0  0
 21 22  1  0  0  0
 22 23  1  0  0  0
 23 24  1  0  0  0
 24 25  1  0  0  0
 25 26  1  0  0  0
 11 12  1  0  0  0
 12 13  2  0  0  0
 12 14  1  0  0  0
 14 15  1  0  0  0
 15 16  1  0  0  0
 16 17  1  0  0  0
 17 18  1  0  0  0
 18 19  1  0  0  0
  7  2  1  0  0  0
 13  8  1  0  0  0
 19 14  1  0  0  0
 36 31  1  0  0  0
 26 21  1  0  0  0
 27 30  1  0  0  0
M  END
> <minimizedAffinity>
-7.38179

> <CNNscore>
0.3685757518

> <CNNaffinity>
6.6856241226

> <CNN_VS>
2.4641590118

> <CNNaffinity_variance>
0.1411016881

$$$$
[H]c1nc(OC2([H])C([H])([H])C([H])([H])OC([H])([H])C2([H])[H])c(N2C([H])([H])C([H])([H])OC([H])([H])C2([H])[H])c([H])c1-c1c(C([H])([H])[H])nc([H])c(N([H])C(=O)c2c([H])c([H])c([H])c(C(F)(F)F)c2[H])c1[H]


 40 44  0  0  0  0  0  0  0  0999 V2000
   -0.1856  -54.6833  -24.8920 C   0  0  0  0  0  0  0  0  0  0  0  0
   -0.4797  -54.1281  -23.5417 C   0  0  0  0  0  0  0  0  0  0  0  0
   -1.3315  -54.8263  -22.7406 N   0  0  0  0  0  0  0  0  0  0  0  0
   -1.6635  -54.4564  -21.5005 C   0  0  0  0  0  0  0  0  0  0  0  0
   -1.1418  -53.2872  -20.9156 C   0  0  0  0  0  0  0  0  0  0  0  0
   -0.2938  -52.5845  -21.7048 C   0  0  0  0  0  0  0  0  0  0  0  0
    0.0458  -52.9912  -23.0186 C   0  0  0  0  0  0  0  0  0  0  0  0
    0.9941  -52.1737  -23.7412 C   0  0  0  0  0  0  0  0  0  0  0  0
    0.6075  -51.6497  -24.9865 C   0  0  0  0  0  0  0  0  0  0  0  0
    1.4542  -50.8977  -25.6955 N   0  0  0  0  0  0  0  0  0  0  0  0
    2.6837  -50.6146  -25.2565 C   0  0  0  0  0  0  0  0  0  0  0  0
    3.0927  -51.1064  -24.0463 C   0  0  0  0  0  0  0  0  0  0  0  0
    2.2438  -51.8864  -23.2963 C   0  0  0  0  0  0  0  0  0  0  0  0
    4.4227  -50.7708  -23.5744 N   0  0  0  0  0  0  0  0  0  0  0  0
    4.5491  -49.7989  -22.5452 C   0  0  0  0  0  0  0  0  0  0  0  0
    5.9678  -49.4310  -22.1892 C   0  0  0  0  0  0  0  0  0  0  0  0
    6.7638  -49.5893  -23.3522 O   0  0  0  0  0  0  0  0  0  0  0  0
    6.8369  -50.9635  -23.5620 C   0  0  0  0  0  0  0  0  0  0  0  0
    5.5397  -51.4923  -24.1352 C   0  0  0  0  0  0  0  0  0  0  0  0
    3.5690  -49.8254  -25.9946 O   0  0  0  0  0  0  0  0  0  0  0  0
    3.1562  -48.5958  -26.5593 C   0  0  0  0  0  0  0  0  0  0  0  0
    3.4453  -47.5561  -25.4528 C   0  0  0  0  0  0  0  0  0  0  0  0
    4.9414  -47.4602  -25.2942 C   0  0  0  0  0  0  0  0  0  0  0  0
    5.5974  -47.1395  -26.4815 O   0  0  0  0  0  0  0  0  0  0  0  0
    4.6793  -46.8985  -27.5034 C   0  0  0  0  0  0  0  0  0  0  0  0
    3.8830  -48.1591  -27.7710 C   0  0  0  0  0  0  0  0  0  0  0  0
   -1.4827  -52.9662  -19.5762 N   0  0  0  0  0  0  0  0  0  0  0  0
   -0.6755  -52.4505  -18.5679 C   0  0  0  0  0  0  0  0  0  0  0  0
    0.5348  -52.1795  -18.7646 O   0  0  0  0  0  0  0  0  0  0  0  0
   -2.5098  -53.1349  -19.2887 H   0  0  0  0  0  0  0  0  0  0  0  0
   -1.2240  -52.2050  -17.2157 C   0  0  0  0  0  0  0  0  0  0  0  0
   -0.3877  -51.6770  -16.2408 C   0  0  0  0  0  0  0  0  0  0  0  0
   -0.8637  -51.4615  -14.9680 C   0  0  0  0  0  0  0  0  0  0  0  0
   -2.1707  -51.7586  -14.6198 C   0  0  0  0  0  0  0  0  0  0  0  0
   -3.0039  -52.2820  -15.5771 C   0  0  0  0  0  0  0  0  0  0  0  0
   -2.5083  -52.4905  -16.8512 C   0  0  0  0  0  0  0  0  0  0  0  0
   -4.4056  -52.6305  -15.2328 C   0  0  0  0  0  0  0  0  0  0  0  0
   -5.1022  -51.4668  -14.9506 F   0  0  0  0  0  0  0  0  0  0  0  0
   -5.0220  -53.2109  -16.3079 F   0  0  0  0  0  0  0  0  0  0  0  0
   -4.4281  -53.4404  -14.1024 F   0  0  0  0  0  0  0  0  0  0  0  0
  1  2  1  0  0  0
  2  3  2  0  0  0
  3  4  1  0  0  0
  4  5  2  0  0  0
  5 27  1  0  0  0
 27 28  1  0  0  0
 28 29  2  0  0  0
 28 31  1  0  0  0
 31 32  2  0  0  0
 32 33  1  0  0  0
 33 34  2  0  0  0
 34 35  1  0  0  0
 35 36  2  0  0  0
 35 37  1  0  0  0
 37 38  1  0  0  0
 37 39  1  0  0  0
 37 40  1  0  0  0
  5  6  1  0  0  0
  6  7  2  0  0  0
  7  8  1  0  0  0
  8  9  2  0  0  0
  9 10  1  0  0  0
 10 11  2  0  0  0
 11 20  1  0  0  0
 20 21  1  0  0  0
 21 22  1  0  0  0
 22 23  1  0  0  0
 23 24  1  0  0  0
 24 25  1  0  0  0
 25 26  1  0  0  0
 11 12  1  0  0  0
 12 13  2  0  0  0
 12 14  1  0  0  0
 14 15  1  0  0  0
 15 16  1  0  0  0
 16 17  1  0  0  0
 17 18  1  0  0  0
 18 19  1  0  0  0
  7  2  1  0  0  0
 13  8  1  0  0  0
 19 14  1  0  0  0
 36 31  1  0  0  0
 26 21  1  0  0  0
 27 30  1  0  0  0
M  END
> <minimizedAffinity>
-7.97303

> <CNNscore>
0.3538284302

> <CNNaffinity>
6.9907088280

> <CNN_VS>
2.4735114574

> <CNNaffinity_variance>
0.0598771349

$$$$
[H]c1nc(OC2([H])C([H])([H])C([H])([H])OC([H])([H])C2([H])[H])c(N2C([H])([H])C([H])([H])OC([H])([H])C2([H])[H])c([H])c1-c1c(C([H])([H])[H])nc([H])c(N([H])C(=O)c2c([H])c([H])c([H])c(C(F)(F)F)c2[H])c1[H]


 40 44  0  0  0  0  0  0  0  0999 V2000
   -1.4835  -52.7938  -17.1968 C   0  0  0  0  0  0  0  0  0  0  0  0
   -1.0785  -52.7434  -18.6291 C   0  0  0  0  0  0  0  0  0  0  0  0
   -1.7319  -53.5592  -19.5021 N   0  0  0  0  0  0  0  0  0  0  0  0
   -1.4867  -53.5987  -20.8148 C   0  0  0  0  0  0  0  0  0  0  0  0
   -0.5095  -52.7767  -21.4070 C   0  0  0  0  0  0  0  0  0  0  0  0
    0.1474  -51.9617  -20.5468 C   0  0  0  0  0  0  0  0  0  0  0  0
   -0.1249  -51.9343  -19.1568 C   0  0  0  0  0  0  0  0  0  0  0  0
    0.6186  -50.9895  -18.3542 C   0  0  0  0  0  0  0  0  0  0  0  0
    0.2571  -50.8333  -17.0052 C   0  0  0  0  0  0  0  0  0  0  0  0
    0.9085  -49.9640  -16.2274 N   0  0  0  0  0  0  0  0  0  0  0  0
    1.9166  -49.2201  -16.6910 C   0  0  0  0  0  0  0  0  0  0  0  0
    2.2971  -49.3484  -17.9996 C   0  0  0  0  0  0  0  0  0  0  0  0
    1.6423  -50.2327  -18.8248 C   0  0  0  0  0  0  0  0  0  0  0  0
    3.4081  -48.5495  -18.4809 N   0  0  0  0  0  0  0  0  0  0  0  0
    4.6933  -49.1522  -18.5507 C   0  0  0  0  0  0  0  0  0  0  0  0
    5.8096  -48.2234  -18.9582 C   0  0  0  0  0  0  0  0  0  0  0  0
    5.4729  -46.9181  -18.5177 O   0  0  0  0  0  0  0  0  0  0  0  0
    4.4163  -46.5181  -19.3309 C   0  0  0  0  0  0  0  0  0  0  0  0
    3.1303  -47.2039  -18.9223 C   0  0  0  0  0  0  0  0  0  0  0  0
    2.6014  -48.3134  -15.8783 O   0  0  0  0  0  0  0  0  0  0  0  0
    3.6609  -48.7366  -15.0419 C   0  0  0  0  0  0  0  0  0  0  0  0
    3.4169  -47.9845  -13.7138 C   0  0  0  0  0  0  0  0  0  0  0  0
    2.1556  -48.5365  -13.0999 C   0  0  0  0  0  0  0  0  0  0  0  0
    2.2008  -49.9161  -12.9057 O   0  0  0  0  0  0  0  0  0  0  0  0
    3.4534  -50.4228  -13.2514 C   0  0  0  0  0  0  0  0  0  0  0  0
    3.7039  -50.1806  -14.7257 C   0  0  0  0  0  0  0  0  0  0  0  0
   -0.3241  -52.8167  -22.8132 N   0  0  0  0  0  0  0  0  0  0  0  0
    0.3337  -51.9078  -23.6348 C   0  0  0  0  0  0  0  0  0  0  0  0
    0.8905  -50.8818  -23.1717 O   0  0  0  0  0  0  0  0  0  0  0  0
   -0.7412  -53.6693  -23.3282 H   0  0  0  0  0  0  0  0  0  0  0  0
    0.3961  -52.1228  -25.0975 C   0  0  0  0  0  0  0  0  0  0  0  0
   -0.7824  -52.0771  -25.8307 C   0  0  0  0  0  0  0  0  0  0  0  0
   -0.7578  -52.2978  -27.1886 C   0  0  0  0  0  0  0  0  0  0  0  0
    0.4223  -52.5691  -27.8605 C   0  0  0  0  0  0  0  0  0  0  0  0
    1.5918  -52.6173  -27.1431 C   0  0  0  0  0  0  0  0  0  0  0  0
    1.5478  -52.3915  -25.7795 C   0  0  0  0  0  0  0  0  0  0  0  0
    2.8725  -52.9252  -27.8287 C   0  0  0  0  0  0  0  0  0  0  0  0
    3.3162  -51.7884  -28.4845 F   0  0  0  0  0  0  0  0  0  0  0  0
    3.8307  -53.2511  -26.9077 F   0  0  0  0  0  0  0  0  0  0  0  0
    2.6753  -53.9275  -28.7724 F   0  0  0  0  0  0  0  0  0  0  0  0
  1  2  1  0  0  0
  2  3  2  0  0  0
  3  4  1  0  0  0
  4  5  2  0  0  0
  5 27  1  0  0  0
 27 28  1  0  0  0
 28 29  2  0  0  0
 28 31  1  0  0  0
 31 32  2  0  0  0
 32 33  1  0  0  0
 33 34  2  0  0  0
 34 35  1  0  0  0
 35 36  2  0  0  0
 35 37  1  0  0  0
 37 38  1  0  0  0
 37 39  1  0  0  0
 37 40  1  0  0  0
  5  6  1  0  0  0
  6  7  2  0  0  0
  7  8  1  0  0  0
  8  9  2  0  0  0
  9 10  1  0  0  0
 10 11  2  0  0  0
 11 20  1  0  0  0
 20 21  1  0  0  0
 21 22  1  0  0  0
 22 23  1  0  0  0
 23 24  1  0  0  0
 24 25  1  0  0  0
 25 26  1  0  0  0
 11 12  1  0  0  0
 12 13  2  0  0  0
 12 14  1  0  0  0
 14 15  1  0  0  0
 15 16  1  0  0  0
 16 17  1  0  0  0
 17 18  1  0  0  0
 18 19  1  0  0  0
  7  2  1  0  0  0
 13  8  1  0  0  0
 19 14  1  0  0  0
 36 31  1  0  0  0
 26 21  1  0  0  0
 27 30  1  0  0  0
M  END
> <minimizedAffinity>
-7.96150

> <CNNscore>
0.2765287459

> <CNNaffinity>
6.8130064011

> <CNN_VS>
1.8839920759

> <CNNaffinity_variance>
0.3391780853

$$$$
[H]c1nc(OC2([H])C([H])([H])C([H])([H])OC([H])([H])C2([H])[H])c(N2C([H])([H])C([H])([H])OC([H])([H])C2([H])[H])c([H])c1-c1c(C([H])([H])[H])nc([H])c(N([H])C(=O)c2c([H])c([H])c([H])c(C(F)(F)F)c2[H])c1[H]


 40 44  0  0  0  0  0  0  0  0999 V2000
   -0.2138  -54.2613  -24.6568 C   0  0  0  0  0  0  0  0  0  0  0  0
   -0.3171  -53.7315  -23.2688 C   0  0  0  0  0  0  0  0  0  0  0  0
   -1.1367  -54.3853  -22.3997 N   0  0  0  0  0  0  0  0  0  0  0  0
   -1.3047  -54.0331  -21.1219 C   0  0  0  0  0  0  0  0  0  0  0  0
   -0.6274  -52.9316  -20.5659 C   0  0  0  0  0  0  0  0  0  0  0  0
    0.1902  -52.2734  -21.4227 C   0  0  0  0  0  0  0  0  0  0  0  0
    0.3549  -52.6603  -22.7755 C   0  0  0  0  0  0  0  0  0  0  0  0
    1.2885  -51.8983  -23.5739 C   0  0  0  0  0  0  0  0  0  0  0  0
    0.8726  -51.4538  -24.8404 C   0  0  0  0  0  0  0  0  0  0  0  0
    1.7047  -50.7556  -25.6183 N   0  0  0  0  0  0  0  0  0  0  0  0
    2.9467  -50.4531  -25.2303 C   0  0  0  0  0  0  0  0  0  0  0  0
    3.3842  -50.8680  -24.0014 C   0  0  0  0  0  0  0  0  0  0  0  0
    2.5509  -51.5914  -23.1806 C   0  0  0  0  0  0  0  0  0  0  0  0
    4.7278  -50.5117  -23.5865 N   0  0  0  0  0  0  0  0  0  0  0  0
    4.8896  -49.4359  -22.6720 C   0  0  0  0  0  0  0  0  0  0  0  0
    6.3207  -49.0622  -22.3770 C   0  0  0  0  0  0  0  0  0  0  0  0
    7.0955  -49.3643  -23.5257 O   0  0  0  0  0  0  0  0  0  0  0  0
    7.1375  -50.7545  -23.5842 C   0  0  0  0  0  0  0  0  0  0  0  0
    5.8213  -51.3146  -24.0789 C   0  0  0  0  0  0  0  0  0  0  0  0
    3.8168  -49.7199  -26.0407 O   0  0  0  0  0  0  0  0  0  0  0  0
    3.3645  -48.5948  -26.7690 C   0  0  0  0  0  0  0  0  0  0  0  0
    3.4813  -47.4241  -25.7665 C   0  0  0  0  0  0  0  0  0  0  0  0
    4.9472  -47.1894  -25.5053 C   0  0  0  0  0  0  0  0  0  0  0  0
    5.6768  -46.9426  -26.6671 O   0  0  0  0  0  0  0  0  0  0  0  0
    4.8339  -46.8868  -27.7770 C   0  0  0  0  0  0  0  0  0  0  0  0
    4.1579  -48.2298  -27.9625 C   0  0  0  0  0  0  0  0  0  0  0  0
   -0.7979  -52.6308  -19.1898 N   0  0  0  0  0  0  0  0  0  0  0  0
   -0.0395  -51.7957  -18.3766 C   0  0  0  0  0  0  0  0  0  0  0  0
    0.9464  -51.1578  -18.8219 O   0  0  0  0  0  0  0  0  0  0  0  0
   -1.6326  -53.1045  -18.6948 H   0  0  0  0  0  0  0  0  0  0  0  0
   -0.3731  -51.6333  -16.9442 C   0  0  0  0  0  0  0  0  0  0  0  0
   -1.6855  -51.8335  -16.5365 C   0  0  0  0  0  0  0  0  0  0  0  0
   -2.0296  -51.6653  -15.2151 C   0  0  0  0  0  0  0  0  0  0  0  0
   -1.0959  -51.2965  -14.2612 C   0  0  0  0  0  0  0  0  0  0  0  0
    0.2036  -51.0955  -14.6557 C   0  0  0  0  0  0  0  0  0  0  0  0
    0.5310  -51.2705  -15.9878 C   0  0  0  0  0  0  0  0  0  0  0  0
    1.2264  -50.6802  -13.6626 C   0  0  0  0  0  0  0  0  0  0  0  0
    0.7233  -49.6311  -12.9105 F   0  0  0  0  0  0  0  0  0  0  0  0
    1.4793  -51.7060  -12.7929 F   0  0  0  0  0  0  0  0  0  0  0  0
    2.3715  -50.2405  -14.3180 F   0  0  0  0  0  0  0  0  0  0  0  0
  1  2  1  0  0  0
  2  3  2  0  0  0
  3  4  1  0  0  0
  4  5  2  0  0  0
  5 27  1  0  0  0
 27 28  1  0  0  0
 28 29  2  0  0  0
 28 31  1  0  0  0
 31 32  2  0  0  0
 32 33  1  0  0  0
 33 34  2  0  0  0
 34 35  1  0  0  0
 35 36  2  0  0  0
 35 37  1  0  0  0
 37 38  1  0  0  0
 37 39  1  0  0  0
 37 40  1  0  0  0
  5  6  1  0  0  0
  6  7  2  0  0  0
  7  8  1  0  0  0
  8  9  2  0  0  0
  9 10  1  0  0  0
 10 11  2  0  0  0
 11 20  1  0  0  0
 20 21  1  0  0  0
 21 22  1  0  0  0
 22 23  1  0  0  0
 23 24  1  0  0  0
 24 25  1  0  0  0
 25 26  1  0  0  0
 11 12  1  0  0  0
 12 13  2  0  0  0
 12 14  1  0  0  0
 14 15  1  0  0  0
 15 16  1  0  0  0
 16 17  1  0  0  0
 17 18  1  0  0  0
 18 19  1  0  0  0
  7  2  1  0  0  0
 13  8  1  0  0  0
 19 14  1  0  0  0
 36 31  1  0  0  0
 26 21  1  0  0  0
 27 30  1  0  0  0
M  END
> <minimizedAffinity>
-7.56050

> <CNNscore>
0.2738377750

> <CNNaffinity>
6.8303918839

> <CNN_VS>
1.8704192638

> <CNNaffinity_variance>
0.1704176962

$$$$
[H]c1nc(OC2([H])C([H])([H])C([H])([H])OC([H])([H])C2([H])[H])c(N2C([H])([H])C([H])([H])OC([H])([H])C2([H])[H])c([H])c1-c1c(C([H])([H])[H])nc([H])c(N([H])C(=O)c2c([H])c([H])c([H])c(C(F)(F)F)c2[H])c1[H]


 40 44  0  0  0  0  0  0  0  0999 V2000
    0.4027  -53.7399  -23.8494 C   0  0  0  0  0  0  0  0  0  0  0  0
    0.1394  -53.1940  -22.4890 C   0  0  0  0  0  0  0  0  0  0  0  0
   -0.5506  -53.9769  -21.6140 N   0  0  0  0  0  0  0  0  0  0  0  0
   -0.8351  -53.6225  -20.3577 C   0  0  0  0  0  0  0  0  0  0  0  0
   -0.4301  -52.3809  -19.8326 C   0  0  0  0  0  0  0  0  0  0  0  0
    0.2565  -51.5936  -20.6955 C   0  0  0  0  0  0  0  0  0  0  0  0
    0.5479  -51.9855  -22.0253 C   0  0  0  0  0  0  0  0  0  0  0  0
    1.3235  -51.0698  -22.8313 C   0  0  0  0  0  0  0  0  0  0  0  0
    1.3345  -51.2550  -24.2242 C   0  0  0  0  0  0  0  0  0  0  0  0
    2.0456  -50.4402  -25.0088 N   0  0  0  0  0  0  0  0  0  0  0  0
    2.7629  -49.4295  -24.5104 C   0  0  0  0  0  0  0  0  0  0  0  0
    2.7730  -49.2181  -23.1580 C   0  0  0  0  0  0  0  0  0  0  0  0
    2.0532  -50.0431  -22.3256 C   0  0  0  0  0  0  0  0  0  0  0  0
    3.5390  -48.1025  -22.6356 N   0  0  0  0  0  0  0  0  0  0  0  0
    2.8858  -46.8505  -22.4755 C   0  0  0  0  0  0  0  0  0  0  0  0
    3.7792  -45.7199  -22.0299 C   0  0  0  0  0  0  0  0  0  0  0  0
    5.0837  -45.9746  -22.5245 O   0  0  0  0  0  0  0  0  0  0  0  0
    5.5512  -47.0572  -21.7847 C   0  0  0  0  0  0  0  0  0  0  0  0
    4.9075  -48.3465  -22.2477 C   0  0  0  0  0  0  0  0  0  0  0  0
    3.5040  -48.5741  -25.3293 O   0  0  0  0  0  0  0  0  0  0  0  0
    4.5692  -49.0618  -26.1223 C   0  0  0  0  0  0  0  0  0  0  0  0
    4.1030  -48.8132  -27.5749 C   0  0  0  0  0  0  0  0  0  0  0  0
    4.0678  -47.3225  -27.7958 C   0  0  0  0  0  0  0  0  0  0  0  0
    5.2893  -46.7027  -27.5375 O   0  0  0  0  0  0  0  0  0  0  0  0
    6.2660  -47.6477  -27.2237 C   0  0  0  0  0  0  0  0  0  0  0  0
    5.8700  -48.3780  -25.9570 C   0  0  0  0  0  0  0  0  0  0  0  0
   -0.7094  -52.0734  -18.4759 N   0  0  0  0  0  0  0  0  0  0  0  0
    0.0195  -51.2885  -17.5890 C   0  0  0  0  0  0  0  0  0  0  0  0
    1.0797  -50.7115  -17.9356 O   0  0  0  0  0  0  0  0  0  0  0  0
   -1.6140  -52.4960  -18.0644 H   0  0  0  0  0  0  0  0  0  0  0  0
   -0.4356  -51.1094  -16.1925 C   0  0  0  0  0  0  0  0  0  0  0  0
    0.1263  -51.9010  -15.1995 C   0  0  0  0  0  0  0  0  0  0  0  0
   -0.2953  -51.7735  -13.8960 C   0  0  0  0  0  0  0  0  0  0  0  0
   -1.2781  -50.8674  -13.5343 C   0  0  0  0  0  0  0  0  0  0  0  0
   -1.8397  -50.0816  -14.5099 C   0  0  0  0  0  0  0  0  0  0  0  0
   -1.4024  -50.2228  -15.8142 C   0  0  0  0  0  0  0  0  0  0  0  0
   -2.9099  -49.1134  -14.1603 C   0  0  0  0  0  0  0  0  0  0  0  0
   -3.4782  -48.6302  -15.3277 F   0  0  0  0  0  0  0  0  0  0  0  0
   -3.9058  -49.7456  -13.4666 F   0  0  0  0  0  0  0  0  0  0  0  0
   -2.3680  -48.0413  -13.4596 F   0  0  0  0  0  0  0  0  0  0  0  0
  1  2  1  0  0  0
  2  3  2  0  0  0
  3  4  1  0  0  0
  4  5  2  0  0  0
  5 27  1  0  0  0
 27 28  1  0  0  0
 28 29  2  0  0  0
 28 31  1  0  0  0
 31 32  2  0  0  0
 32 33  1  0  0  0
 33 34  2  0  0  0
 34 35  1  0  0  0
 35 36  2  0  0  0
 35 37  1  0  0  0
 37 38  1  0  0  0
 37 39  1  0  0  0
 37 40  1  0  0  0
  5  6  1  0  0  0
  6  7  2  0  0  0
  7  8  1  0  0  0
  8  9  2  0  0  0
  9 10  1  0  0  0
 10 11  2  0  0  0
 11 20  1  0  0  0
 20 21  1  0  0  0
 21 22  1  0  0  0
 22 23  1  0  0  0
 23 24  1  0  0  0
 24 25  1  0  0  0
 25 26  1  0  0  0
 11 12  1  0  0  0
 12 13  2  0  0  0
 12 14  1  0  0  0
 14 15  1  0  0  0
 15 16  1  0  0  0
 16 17  1  0  0  0
 17 18  1  0  0  0
 18 19  1  0  0  0
  7  2  1  0  0  0
 13  8  1  0  0  0
 19 14  1  0  0  0
 36 31  1  0  0  0
 26 21  1  0  0  0
 27 30  1  0  0  0
M  END
> <minimizedAffinity>
-6.78695

> <CNNscore>
0.2658892572

> <CNNaffinity>
6.5913038254

> <CNN_VS>
1.7525569201

> <CNNaffinity_variance>
0.1772174239

$$$$
[H]c1c([H])c(C([H])([H])N(C([H])([H])C(C([H])([H])[H])(C([H])([H])[H])C([H])([H])[H])S(=O)(=O)c2c(C([H])([H])[H])c([H])c(C([H])([H])[H])c([H])c2C([H])([H])[H])c([H])c([H])c1OC([H])([H])C([H])([H])N1C([H])([H])C([H])([H])C([H])([H])C([H])([H])C1([H])[H]


 34 36  0  0  0  0  0  0  0  0999 V2000
    1.1230  -52.5985  -25.4702 N   0  0  0  0  0  0  0  0  0  0  0  0
   -0.2450  -52.8964  -24.5762 S   0  0  0  0  0  0  0  0  0  0  0  0
   -0.6990  -54.3192  -24.9508 O   0  0  0  0  0  0  0  0  0  0  0  0
   -1.4531  -52.0832  -25.0726 O   0  0  0  0  0  0  0  0  0  0  0  0
   -0.3373  -52.6186  -18.5637 C   0  0  0  0  0  0  0  0  0  0  0  0
   -0.3032  -52.6831  -20.0517 C   0  0  0  0  0  0  0  0  0  0  0  0
    0.2365  -51.6672  -20.7726 C   0  0  0  0  0  0  0  0  0  0  0  0
    0.2530  -51.7557  -22.1584 C   0  0  0  0  0  0  0  0  0  0  0  0
    0.9167  -50.6291  -22.8622 C   0  0  0  0  0  0  0  0  0  0  0  0
   -0.2650  -52.8494  -22.8677 C   0  0  0  0  0  0  0  0  0  0  0  0
   -0.8084  -53.8759  -22.1145 C   0  0  0  0  0  0  0  0  0  0  0  0
   -1.3314  -55.0738  -22.7571 C   0  0  0  0  0  0  0  0  0  0  0  0
   -0.8135  -53.7633  -20.7146 C   0  0  0  0  0  0  0  0  0  0  0  0
    1.0299  -52.3126  -26.8364 C   0  0  0  0  0  0  0  0  0  0  0  0
    0.9185  -53.2919  -27.8938 C   0  0  0  0  0  0  0  0  0  0  0  0
    2.3142  -53.3740  -28.5850 C   0  0  0  0  0  0  0  0  0  0  0  0
    0.4868  -54.6728  -27.6671 C   0  0  0  0  0  0  0  0  0  0  0  0
    0.0468  -52.7570  -29.0623 C   0  0  0  0  0  0  0  0  0  0  0  0
    2.3603  -53.1879  -25.0615 C   0  0  0  0  0  0  0  0  0  0  0  0
    3.3732  -52.3157  -24.4993 C   0  0  0  0  0  0  0  0  0  0  0  0
    3.8174  -51.1701  -25.1344 C   0  0  0  0  0  0  0  0  0  0  0  0
    4.7752  -50.3165  -24.6429 C   0  0  0  0  0  0  0  0  0  0  0  0
    5.3539  -50.5863  -23.4404 C   0  0  0  0  0  0  0  0  0  0  0  0
    4.9373  -51.7388  -22.7557 C   0  0  0  0  0  0  0  0  0  0  0  0
    3.9661  -52.5740  -23.2893 C   0  0  0  0  0  0  0  0  0  0  0  0
    6.3023  -49.8284  -22.8478 O   0  0  0  0  0  0  0  0  0  0  0  0
    6.3202  -48.9040  -21.8469 C   0  0  0  0  0  0  0  0  0  0  0  0
    5.0312  -48.2250  -21.4983 C   0  0  0  0  0  0  0  0  0  0  0  0
    4.8360  -48.0873  -20.0728 N   0  0  0  0  0  0  0  0  0  0  0  0
    4.7901  -49.3550  -19.3990 C   0  0  0  0  0  0  0  0  0  0  0  0
    3.5401  -50.1235  -19.7016 C   0  0  0  0  0  0  0  0  0  0  0  0
    2.3459  -49.3067  -19.3027 C   0  0  0  0  0  0  0  0  0  0  0  0
    2.3870  -48.0031  -20.0719 C   0  0  0  0  0  0  0  0  0  0  0  0
    3.6898  -47.3214  -19.6956 C   0  0  0  0  0  0  0  0  0  0  0  0
  5  6  1  0  0  0
  6  7  2  0  0  0
  7  8  1  0  0  0
  8  9  1  0  0  0
  8 10  2  0  0  0
 10 11  1  0  0  0
 11 12  1  0  0  0
 11 13  2  0  0  0
 10  2  1  0  0  0
  2  3  2  0  0  0
  2  4  2  0  0  0
  2  1  1  0  0  0
  1 14  1  0  0  0
 14 15  1  0  0  0
 15 16  1  0  0  0
 15 17  1  0  0  0
 15 18  1  0  0  0
  1 19  1  0  0  0
 19 20  1  0  0  0
 20 21  2  0  0  0
 21 22  1  0  0  0
 22 23  2  0  0  0
 23 26  1  0  0  0
 26 27  1  0  0  0
 27 28  1  0  0  0
 28 29  1  0  0  0
 29 30  1  0  0  0
 30 31  1  0  0  0
 31 32  1  0  0  0
 32 33  1  0  0  0
 33 34  1  0  0  0
 23 24  1  0  0  0
 24 25  2  0  0  0
 13  6  1  0  0  0
 25 20  1  0  0  0
 34 29  1  0  0  0
M  END
> <minimizedAffinity>
-7.17221

> <CNNscore>
0.2162079662

> <CNNaffinity>
6.7963819504

> <CNN_VS>
1.4694318771

> <CNNaffinity_variance>
0.3240227699

$$$$
[H]c1c([H])c(C([H])([H])N(C([H])([H])C(C([H])([H])[H])(C([H])([H])[H])C([H])([H])[H])S(=O)(=O)c2c(C([H])([H])[H])c([H])c(C([H])([H])[H])c([H])c2C([H])([H])[H])c([H])c([H])c1OC([H])([H])C([H])([H])N1C([H])([H])C([H])([H])C([H])([H])C([H])([H])C1([H])[H]


 34 36  0  0  0  0  0  0  0  0999 V2000
    2.0335  -50.3031  -18.8840 N   0  0  0  0  0  0  0  0  0  0  0  0
    3.3259  -50.4672  -19.9146 S   0  0  0  0  0  0  0  0  0  0  0  0
    3.6493  -51.9720  -19.9583 O   0  0  0  0  0  0  0  0  0  0  0  0
    4.6295  -49.9239  -19.3044 O   0  0  0  0  0  0  0  0  0  0  0  0
    3.1136  -48.8032  -25.6958 C   0  0  0  0  0  0  0  0  0  0  0  0
    3.1760  -49.2215  -24.2673 C   0  0  0  0  0  0  0  0  0  0  0  0
    3.4688  -50.5055  -23.9381 C   0  0  0  0  0  0  0  0  0  0  0  0
    3.5189  -50.8654  -22.5977 C   0  0  0  0  0  0  0  0  0  0  0  0
    3.9060  -52.2735  -22.3288 C   0  0  0  0  0  0  0  0  0  0  0  0
    3.2791  -49.9663  -21.5481 C   0  0  0  0  0  0  0  0  0  0  0  0
    2.9849  -48.6614  -21.9045 C   0  0  0  0  0  0  0  0  0  0  0  0
    2.7640  -47.6438  -20.8859 C   0  0  0  0  0  0  0  0  0  0  0  0
    2.9401  -48.3217  -23.2665 C   0  0  0  0  0  0  0  0  0  0  0  0
    2.1344  -50.7081  -17.5488 C   0  0  0  0  0  0  0  0  0  0  0  0
    1.8081  -49.8965  -16.3980 C   0  0  0  0  0  0  0  0  0  0  0  0
    2.4873  -48.5092  -16.6141 C   0  0  0  0  0  0  0  0  0  0  0  0
    0.4340  -49.6229  -15.9718 C   0  0  0  0  0  0  0  0  0  0  0  0
    2.5583  -50.3930  -15.1323 C   0  0  0  0  0  0  0  0  0  0  0  0
    0.7091  -50.3307  -19.4230 C   0  0  0  0  0  0  0  0  0  0  0  0
    0.3311  -51.4721  -20.2335 C   0  0  0  0  0  0  0  0  0  0  0  0
    0.3469  -52.7712  -19.7589 C   0  0  0  0  0  0  0  0  0  0  0  0
    0.0010  -53.8822  -20.4892 C   0  0  0  0  0  0  0  0  0  0  0  0
   -0.3934  -53.7321  -21.7837 C   0  0  0  0  0  0  0  0  0  0  0  0
   -0.4261  -52.4324  -22.3130 C   0  0  0  0  0  0  0  0  0  0  0  0
   -0.0680  -51.3375  -21.5393 C   0  0  0  0  0  0  0  0  0  0  0  0
   -0.7601  -54.7398  -22.6053 O   0  0  0  0  0  0  0  0  0  0  0  0
   -1.1458  -54.8376  -23.9086 C   0  0  0  0  0  0  0  0  0  0  0  0
   -0.1246  -54.5437  -24.9644 C   0  0  0  0  0  0  0  0  0  0  0  0
   -0.6801  -53.8554  -26.1076 N   0  0  0  0  0  0  0  0  0  0  0  0
    0.1152  -54.0252  -27.2916 C   0  0  0  0  0  0  0  0  0  0  0  0
    1.4166  -53.2860  -27.2225 C   0  0  0  0  0  0  0  0  0  0  0  0
    1.1473  -51.8247  -27.0117 C   0  0  0  0  0  0  0  0  0  0  0  0
    0.3608  -51.6699  -25.7271 C   0  0  0  0  0  0  0  0  0  0  0  0
   -0.9218  -52.4609  -25.9090 C   0  0  0  0  0  0  0  0  0  0  0  0
  5  6  1  0  0  0
  6  7  2  0  0  0
  7  8  1  0  0  0
  8  9  1  0  0  0
  8 10  2  0  0  0
 10 11  1  0  0  0
 11 12  1  0  0  0
 11 13  2  0  0  0
 10  2  1  0  0  0
  2  3  2  0  0  0
  2  4  2  0  0  0
  2  1  1  0  0  0
  1 14  1  0  0  0
 14 15  1  0  0  0
 15 16  1  0  0  0
 15 17  1  0  0  0
 15 18  1  0  0  0
  1 19  1  0  0  0
 19 20  1  0  0  0
 20 21  2  0  0  0
 21 22  1  0  0  0
 22 23  2  0  0  0
 23 26  1  0  0  0
 26 27  1  0  0  0
 27 28  1  0  0  0
 28 29  1  0  0  0
 29 30  1  0  0  0
 30 31  1  0  0  0
 31 32  1  0  0  0
 32 33  1  0  0  0
 33 34  1  0  0  0
 23 24  1  0  0  0
 24 25  2  0  0  0
 13  6  1  0  0  0
 25 20  1  0  0  0
 34 29  1  0  0  0
M  END
> <minimizedAffinity>
-6.96307

> <CNNscore>
0.2151564807

> <CNNaffinity>
6.9304628372

> <CNN_VS>
1.4911340475

> <CNNaffinity_variance>
0.1749882698

$$$$
[H]c1c([H])c(C([H])([H])N(C([H])([H])C(C([H])([H])[H])(C([H])([H])[H])C([H])([H])[H])S(=O)(=O)c2c(C([H])([H])[H])c([H])c(C([H])([H])[H])c([H])c2C([H])([H])[H])c([H])c([H])c1OC([H])([H])C([H])([H])N1C([H])([H])C([H])([H])C([H])([H])C([H])([H])C1([H])[H]


 34 36  0  0  0  0  0  0  0  0999 V2000
    1.7158  -49.9585  -18.7118 N   0  0  0  0  0  0  0  0  0  0  0  0
    2.3110  -49.1017  -20.0044 S   0  0  0  0  0  0  0  0  0  0  0  0
    2.9341  -47.8215  -19.4182 O   0  0  0  0  0  0  0  0  0  0  0  0
    1.1902  -48.4925  -20.8645 O   0  0  0  0  0  0  0  0  0  0  0  0
    6.4032  -51.2699  -23.8500 C   0  0  0  0  0  0  0  0  0  0  0  0
    5.3829  -50.7422  -22.9013 C   0  0  0  0  0  0  0  0  0  0  0  0
    4.0735  -50.6926  -23.2560 C   0  0  0  0  0  0  0  0  0  0  0  0
    3.1459  -50.1947  -22.3503 C   0  0  0  0  0  0  0  0  0  0  0  0
    1.7309  -50.2345  -22.7987 C   0  0  0  0  0  0  0  0  0  0  0  0
    3.4885  -49.7312  -21.0715 C   0  0  0  0  0  0  0  0  0  0  0  0
    4.8281  -49.7926  -20.7279 C   0  0  0  0  0  0  0  0  0  0  0  0
    5.2770  -49.3762  -19.4063 C   0  0  0  0  0  0  0  0  0  0  0  0
    5.7471  -50.3002  -21.6608 C   0  0  0  0  0  0  0  0  0  0  0  0
    2.5822  -50.6529  -17.8608 C   0  0  0  0  0  0  0  0  0  0  0  0
    2.9020  -50.2799  -16.5013 C   0  0  0  0  0  0  0  0  0  0  0  0
    3.9426  -51.3176  -15.9790 C   0  0  0  0  0  0  0  0  0  0  0  0
    3.4128  -48.9585  -16.1301 C   0  0  0  0  0  0  0  0  0  0  0  0
    1.7084  -50.5609  -15.5486 C   0  0  0  0  0  0  0  0  0  0  0  0
    0.3892  -50.4882  -18.7827 C   0  0  0  0  0  0  0  0  0  0  0  0
    0.1434  -51.5779  -19.7073 C   0  0  0  0  0  0  0  0  0  0  0  0
   -0.6769  -51.4559  -20.8143 C   0  0  0  0  0  0  0  0  0  0  0  0
   -0.9415  -52.4593  -21.7146 C   0  0  0  0  0  0  0  0  0  0  0  0
   -0.3695  -53.6819  -21.5363 C   0  0  0  0  0  0  0  0  0  0  0  0
    0.4718  -53.8571  -20.4263 C   0  0  0  0  0  0  0  0  0  0  0  0
    0.7116  -52.8156  -19.5412 C   0  0  0  0  0  0  0  0  0  0  0  0
   -0.5461  -54.7474  -22.3479 O   0  0  0  0  0  0  0  0  0  0  0  0
   -1.1237  -54.9553  -23.5644 C   0  0  0  0  0  0  0  0  0  0  0  0
   -0.8541  -53.9555  -24.6469 C   0  0  0  0  0  0  0  0  0  0  0  0
    0.3700  -54.2234  -25.3673 N   0  0  0  0  0  0  0  0  0  0  0  0
    1.3090  -53.1402  -25.2781 C   0  0  0  0  0  0  0  0  0  0  0  0
    0.8751  -51.9358  -26.0564 C   0  0  0  0  0  0  0  0  0  0  0  0
    0.6913  -52.3149  -27.4968 C   0  0  0  0  0  0  0  0  0  0  0  0
   -0.3465  -53.4153  -27.5669 C   0  0  0  0  0  0  0  0  0  0  0  0
    0.1931  -54.5698  -26.7426 C   0  0  0  0  0  0  0  0  0  0  0  0
  5  6  1  0  0  0
  6  7  2  0  0  0
  7  8  1  0  0  0
  8  9  1  0  0  0
  8 10  2  0  0  0
 10 11  1  0  0  0
 11 12  1  0  0  0
 11 13  2  0  0  0
 10  2  1  0  0  0
  2  3  2  0  0  0
  2  4  2  0  0  0
  2  1  1  0  0  0
  1 14  1  0  0  0
 14 15  1  0  0  0
 15 16  1  0  0  0
 15 17  1  0  0  0
 15 18  1  0  0  0
  1 19  1  0  0  0
 19 20  1  0  0  0
 20 21  2  0  0  0
 21 22  1  0  0  0
 22 23  2  0  0  0
 23 26  1  0  0  0
 26 27  1  0  0  0
 27 28  1  0  0  0
 28 29  1  0  0  0
 29 30  1  0  0  0
 30 31  1  0  0  0
 31 32  1  0  0  0
 32 33  1  0  0  0
 33 34  1  0  0  0
 23 24  1  0  0  0
 24 25  2  0  0  0
 13  6  1  0  0  0
 25 20  1  0  0  0
 34 29  1  0  0  0
M  END
> <minimizedAffinity>
-6.76619

> <CNNscore>
0.2052334845

> <CNNaffinity>
6.8861556053

> <CNN_VS>
1.4132697582

> <CNNaffinity_variance>
0.0787259936

$$$$
[H]c1c([H])c(C([H])([H])N(C([H])([H])C(C([H])([H])[H])(C([H])([H])[H])C([H])([H])[H])S(=O)(=O)c2c(C([H])([H])[H])c([H])c(C([H])([H])[H])c([H])c2C([H])([H])[H])c([H])c([H])c1OC([H])([H])C([H])([H])N1C([H])([H])C([H])([H])C([H])([H])C([H])([H])C1([H])[H]


 34 36  0  0  0  0  0  0  0  0999 V2000
    2.6509  -49.6061  -18.6173 N   0  0  0  0  0  0  0  0  0  0  0  0
    3.6534  -49.1057  -19.8435 S   0  0  0  0  0  0  0  0  0  0  0  0
    5.0527  -49.6492  -19.5003 O   0  0  0  0  0  0  0  0  0  0  0  0
    3.9264  -47.5925  -19.7911 O   0  0  0  0  0  0  0  0  0  0  0  0
    2.7927  -50.4722  -25.6424 C   0  0  0  0  0  0  0  0  0  0  0  0
    2.9961  -50.1268  -24.2076 C   0  0  0  0  0  0  0  0  0  0  0  0
    2.8600  -48.8449  -23.7821 C   0  0  0  0  0  0  0  0  0  0  0  0
    3.0568  -48.5538  -22.4385 C   0  0  0  0  0  0  0  0  0  0  0  0
    2.8275  -47.1386  -22.0517 C   0  0  0  0  0  0  0  0  0  0  0  0
    3.3949  -49.5216  -21.4811 C   0  0  0  0  0  0  0  0  0  0  0  0
    3.5264  -50.8229  -21.9344 C   0  0  0  0  0  0  0  0  0  0  0  0
    3.8319  -51.9057  -21.0092 C   0  0  0  0  0  0  0  0  0  0  0  0
    3.3225  -51.0923  -23.2976 C   0  0  0  0  0  0  0  0  0  0  0  0
    3.0822  -50.5647  -17.6941 C   0  0  0  0  0  0  0  0  0  0  0  0
    2.8800  -50.5043  -16.2641 C   0  0  0  0  0  0  0  0  0  0  0  0
    3.3780  -49.1028  -15.7945 C   0  0  0  0  0  0  0  0  0  0  0  0
    1.5783  -50.7159  -15.6274 C   0  0  0  0  0  0  0  0  0  0  0  0
    3.8775  -51.4317  -15.5183 C   0  0  0  0  0  0  0  0  0  0  0  0
    1.2352  -49.5545  -18.8144 C   0  0  0  0  0  0  0  0  0  0  0  0
    0.6169  -50.6264  -19.5703 C   0  0  0  0  0  0  0  0  0  0  0  0
    0.4256  -51.8966  -19.0574 C   0  0  0  0  0  0  0  0  0  0  0  0
   -0.1515  -52.9427  -19.7356 C   0  0  0  0  0  0  0  0  0  0  0  0
   -0.5810  -52.7518  -21.0135 C   0  0  0  0  0  0  0  0  0  0  0  0
   -0.4091  -51.4791  -21.5802 C   0  0  0  0  0  0  0  0  0  0  0  0
    0.1795  -50.4502  -20.8587 C   0  0  0  0  0  0  0  0  0  0  0  0
   -1.1650  -53.6944  -21.7851 O   0  0  0  0  0  0  0  0  0  0  0  0
   -0.7270  -54.6224  -22.6817 C   0  0  0  0  0  0  0  0  0  0  0  0
   -0.8877  -54.3172  -24.1395 C   0  0  0  0  0  0  0  0  0  0  0  0
    0.0937  -53.3753  -24.6281 N   0  0  0  0  0  0  0  0  0  0  0  0
   -0.4880  -52.1129  -24.9899 C   0  0  0  0  0  0  0  0  0  0  0  0
   -1.3232  -52.1977  -26.2309 C   0  0  0  0  0  0  0  0  0  0  0  0
   -0.4774  -52.6970  -27.3656 C   0  0  0  0  0  0  0  0  0  0  0  0
    0.0735  -54.0544  -26.9825 C   0  0  0  0  0  0  0  0  0  0  0  0
    0.8878  -53.8479  -25.7184 C   0  0  0  0  0  0  0  0  0  0  0  0
  5  6  1  0  0  0
  6  7  2  0  0  0
  7  8  1  0  0  0
  8  9  1  0  0  0
  8 10  2  0  0  0
 10 11  1  0  0  0
 11 12  1  0  0  0
 11 13  2  0  0  0
 10  2  1  0  0  0
  2  3  2  0  0  0
  2  4  2  0  0  0
  2  1  1  0  0  0
  1 14  1  0  0  0
 14 15  1  0  0  0
 15 16  1  0  0  0
 15 17  1  0  0  0
 15 18  1  0  0  0
  1 19  1  0  0  0
 19 20  1  0  0  0
 20 21  2  0  0  0
 21 22  1  0  0  0
 22 23  2  0  0  0
 23 26  1  0  0  0
 26 27  1  0  0  0
 27 28  1  0  0  0
 28 29  1  0  0  0
 29 30  1  0  0  0
 30 31  1  0  0  0
 31 32  1  0  0  0
 32 33  1  0  0  0
 33 34  1  0  0  0
 23 24  1  0  0  0
 24 25  2  0  0  0
 13  6  1  0  0  0
 25 20  1  0  0  0
 34 29  1  0  0  0
M  END
> <minimizedAffinity>
-7.00447

> <CNNscore>
0.1838216484

> <CNNaffinity>
6.7646112442

> <CNN_VS>
1.2434819937

> <CNNaffinity_variance>
0.1766761541

$$$$
[H]c1c([H])c(C([H])([H])N(C([H])([H])C(C([H])([H])[H])(C([H])([H])[H])C([H])([H])[H])S(=O)(=O)c2c(C([H])([H])[H])c([H])c(C([H])([H])[H])c([H])c2C([H])([H])[H])c([H])c([H])c1OC([H])([H])C([H])([H])N1C([H])([H])C([H])([H])C([H])([H])C([H])([H])C1([H])[H]


 34 36  0  0  0  0  0  0  0  0999 V2000
    1.9556  -51.2839  -23.2826 N   0  0  0  0  0  0  0  0  0  0  0  0
    1.8236  -52.6421  -24.2297 S   0  0  0  0  0  0  0  0  0  0  0  0
    1.0735  -53.6844  -23.3802 O   0  0  0  0  0  0  0  0  0  0  0  0
    3.1734  -53.3573  -24.4129 O   0  0  0  0  0  0  0  0  0  0  0  0
   -0.8717  -52.7140  -29.6118 C   0  0  0  0  0  0  0  0  0  0  0  0
   -0.1966  -52.6883  -28.2840 C   0  0  0  0  0  0  0  0  0  0  0  0
    1.1582  -52.7054  -28.2001 C   0  0  0  0  0  0  0  0  0  0  0  0
    1.7586  -52.6815  -26.9480 C   0  0  0  0  0  0  0  0  0  0  0  0
    3.2430  -52.6406  -26.9524 C   0  0  0  0  0  0  0  0  0  0  0  0
    1.0357  -52.6421  -25.7466 C   0  0  0  0  0  0  0  0  0  0  0  0
   -0.3443  -52.6226  -25.8535 C   0  0  0  0  0  0  0  0  0  0  0  0
   -1.1815  -52.5371  -24.6647 C   0  0  0  0  0  0  0  0  0  0  0  0
   -0.9280  -52.6473  -27.1307 C   0  0  0  0  0  0  0  0  0  0  0  0
    3.1468  -51.0044  -22.6044 C   0  0  0  0  0  0  0  0  0  0  0  0
    4.1911  -50.1203  -23.0706 C   0  0  0  0  0  0  0  0  0  0  0  0
    5.5117  -50.9499  -23.0921 C   0  0  0  0  0  0  0  0  0  0  0  0
    4.1290  -49.4078  -24.3486 C   0  0  0  0  0  0  0  0  0  0  0  0
    4.5379  -49.0503  -22.0000 C   0  0  0  0  0  0  0  0  0  0  0  0
    0.7777  -50.7430  -22.6781 C   0  0  0  0  0  0  0  0  0  0  0  0
    0.4895  -51.1128  -21.3059 C   0  0  0  0  0  0  0  0  0  0  0  0
    0.7819  -50.2963  -20.2285 C   0  0  0  0  0  0  0  0  0  0  0  0
    0.5306  -50.6050  -18.9136 C   0  0  0  0  0  0  0  0  0  0  0  0
   -0.0508  -51.7978  -18.6089 C   0  0  0  0  0  0  0  0  0  0  0  0
   -0.3672  -52.6631  -19.6681 C   0  0  0  0  0  0  0  0  0  0  0  0
   -0.0955  -52.3110  -20.9826 C   0  0  0  0  0  0  0  0  0  0  0  0
   -0.3516  -52.2185  -17.3609 O   0  0  0  0  0  0  0  0  0  0  0  0
   -0.4682  -51.6264  -16.1391 C   0  0  0  0  0  0  0  0  0  0  0  0
   -1.8316  -51.1856  -15.7024 C   0  0  0  0  0  0  0  0  0  0  0  0
   -1.8087  -50.4171  -14.4785 N   0  0  0  0  0  0  0  0  0  0  0  0
   -3.1143  -49.9601  -14.0915 C   0  0  0  0  0  0  0  0  0  0  0  0
   -3.6404  -48.8870  -14.9950 C   0  0  0  0  0  0  0  0  0  0  0  0
   -2.6887  -47.7265  -14.9946 C   0  0  0  0  0  0  0  0  0  0  0  0
   -1.3376  -48.2235  -15.4636 C   0  0  0  0  0  0  0  0  0  0  0  0
   -0.9125  -49.3038  -14.4859 C   0  0  0  0  0  0  0  0  0  0  0  0
  5  6  1  0  0  0
  6  7  2  0  0  0
  7  8  1  0  0  0
  8  9  1  0  0  0
  8 10  2  0  0  0
 10 11  1  0  0  0
 11 12  1  0  0  0
 11 13  2  0  0  0
 10  2  1  0  0  0
  2  3  2  0  0  0
  2  4  2  0  0  0
  2  1  1  0  0  0
  1 14  1  0  0  0
 14 15  1  0  0  0
 15 16  1  0  0  0
 15 17  1  0  0  0
 15 18  1  0  0  0
  1 19  1  0  0  0
 19 20  1  0  0  0
 20 21  2  0  0  0
 21 22  1  0  0  0
 22 23  2  0  0  0
 23 26  1  0  0  0
 26 27  1  0  0  0
 27 28  1  0  0  0
 28 29  1  0  0  0
 29 30  1  0  0  0
 30 31  1  0  0  0
 31 32  1  0  0  0
 32 33  1  0  0  0
 33 34  1  0  0  0
 23 24  1  0  0  0
 24 25  2  0  0  0
 13  6  1  0  0  0
 25 20  1  0  0  0
 34 29  1  0  0  0
M  END
> <minimizedAffinity>
-7.12049

> <CNNscore>
0.1511172503

> <CNNaffinity>
6.6515312195

> <CNN_VS>
1.0051611662

> <CNNaffinity_variance>
0.0654835105

$$$$
[H]c1c([H])c(C([H])([H])N(C([H])([H])C(C([H])([H])[H])(C([H])([H])[H])C([H])([H])[H])S(=O)(=O)c2c(C([H])([H])[H])c([H])c(C([H])([H])[H])c([H])c2C([H])([H])[H])c([H])c([H])c1OC([H])([H])C([H])([H])N1C([H])([H])C([H])([H])C([H])([H])C([H])([H])C1([H])[H]


 34 36  0  0  0  0  0  0  0  0999 V2000
    1.1118  -50.9561  -19.2841 N   0  0  0  0  0  0  0  0  0  0  0  0
    2.6778  -50.7255  -19.7878 S   0  0  0  0  0  0  0  0  0  0  0  0
    3.3435  -52.1138  -19.7635 O   0  0  0  0  0  0  0  0  0  0  0  0
    3.5270  -49.9955  -18.7327 O   0  0  0  0  0  0  0  0  0  0  0  0
    4.0508  -48.2766  -25.1126 C   0  0  0  0  0  0  0  0  0  0  0  0
    3.6993  -48.8817  -23.7973 C   0  0  0  0  0  0  0  0  0  0  0  0
    2.6852  -48.3707  -23.0535 C   0  0  0  0  0  0  0  0  0  0  0  0
    2.3817  -48.9559  -21.8312 C   0  0  0  0  0  0  0  0  0  0  0  0
    1.2199  -48.3714  -21.1145 C   0  0  0  0  0  0  0  0  0  0  0  0
    3.0736  -50.0599  -21.3115 C   0  0  0  0  0  0  0  0  0  0  0  0
    4.1024  -50.5677  -22.0861 C   0  0  0  0  0  0  0  0  0  0  0  0
    4.8511  -51.7396  -21.6531 C   0  0  0  0  0  0  0  0  0  0  0  0
    4.3903  -49.9588  -23.3186 C   0  0  0  0  0  0  0  0  0  0  0  0
    0.5465  -50.1184  -18.3168 C   0  0  0  0  0  0  0  0  0  0  0  0
    0.1603  -50.5176  -16.9822 C   0  0  0  0  0  0  0  0  0  0  0  0
   -0.2996  -49.2264  -16.2379 C   0  0  0  0  0  0  0  0  0  0  0  0
   -0.8565  -51.5361  -16.7113 C   0  0  0  0  0  0  0  0  0  0  0  0
    1.4003  -50.9145  -16.1360 C   0  0  0  0  0  0  0  0  0  0  0  0
    0.5504  -52.2701  -19.3448 C   0  0  0  0  0  0  0  0  0  0  0  0
    0.1316  -52.7687  -20.6404 C   0  0  0  0  0  0  0  0  0  0  0  0
   -0.1042  -54.1082  -20.8917 C   0  0  0  0  0  0  0  0  0  0  0  0
   -0.4985  -54.6265  -22.1014 C   0  0  0  0  0  0  0  0  0  0  0  0
   -0.6821  -53.7872  -23.1575 C   0  0  0  0  0  0  0  0  0  0  0  0
   -0.4551  -52.4170  -22.9538 C   0  0  0  0  0  0  0  0  0  0  0  0
   -0.0571  -51.9361  -21.7144 C   0  0  0  0  0  0  0  0  0  0  0  0
   -1.0693  -54.1688  -24.3943 O   0  0  0  0  0  0  0  0  0  0  0  0
   -0.4609  -54.7535  -25.4642 C   0  0  0  0  0  0  0  0  0  0  0  0
    0.8163  -54.1479  -25.9600 C   0  0  0  0  0  0  0  0  0  0  0  0
    0.6025  -53.1184  -26.9517 N   0  0  0  0  0  0  0  0  0  0  0  0
    1.6463  -53.0790  -27.9376 C   0  0  0  0  0  0  0  0  0  0  0  0
    2.9406  -52.5638  -27.3862 C   0  0  0  0  0  0  0  0  0  0  0  0
    2.7305  -51.1852  -26.8315 C   0  0  0  0  0  0  0  0  0  0  0  0
    1.6699  -51.2661  -25.7540 C   0  0  0  0  0  0  0  0  0  0  0  0
    0.4174  -51.8041  -26.4215 C   0  0  0  0  0  0  0  0  0  0  0  0
  5  6  1  0  0  0
  6  7  2  0  0  0
  7  8  1  0  0  0
  8  9  1  0  0  0
  8 10  2  0  0  0
 10 11  1  0  0  0
 11 12  1  0  0  0
 11 13  2  0  0  0
 10  2  1  0  0  0
  2  3  2  0  0  0
  2  4  2  0  0  0
  2  1  1  0  0  0
  1 14  1  0  0  0
 14 15  1  0  0  0
 15 16  1  0  0  0
 15 17  1  0  0  0
 15 18  1  0  0  0
  1 19  1  0  0  0
 19 20  1  0  0  0
 20 21  2  0  0  0
 21 22  1  0  0  0
 22 23  2  0  0  0
 23 26  1  0  0  0
 26 27  1  0  0  0
 27 28  1  0  0  0
 28 29  1  0  0  0
 29 30  1  0  0  0
 30 31  1  0  0  0
 31 32  1  0  0  0
 32 33  1  0  0  0
 33 34  1  0  0  0
 23 24  1  0  0  0
 24 25  2  0  0  0
 13  6  1  0  0  0
 25 20  1  0  0  0
 34 29  1  0  0  0
M  END
> <minimizedAffinity>
-7.66012

> <CNNscore>
0.1285257638

> <CNNaffinity>
6.4599595070

> <CNN_VS>
0.8302712440

> <CNNaffinity_variance>
0.6340004206

$$$$
[H]c1c([H])c(C([H])([H])N(C([H])([H])C(C([H])([H])[H])(C([H])([H])[H])C([H])([H])[H])S(=O)(=O)c2c(C([H])([H])[H])c([H])c(C([H])([H])[H])c([H])c2C([H])([H])[H])c([H])c([H])c1OC([H])([H])C([H])([H])N1C([H])([H])C([H])([H])C([H])([H])C([H])([H])C1([H])[H]


 34 36  0  0  0  0  0  0  0  0999 V2000
    1.5748  -49.9239  -20.0286 N   0  0  0  0  0  0  0  0  0  0  0  0
    1.5493  -51.0264  -18.7864 S   0  0  0  0  0  0  0  0  0  0  0  0
    2.6054  -50.5514  -17.7715 O   0  0  0  0  0  0  0  0  0  0  0  0
    2.1532  -52.3804  -19.1975 O   0  0  0  0  0  0  0  0  0  0  0  0
   -3.3661  -52.2834  -15.5468 C   0  0  0  0  0  0  0  0  0  0  0  0
   -2.1557  -51.9745  -16.3587 C   0  0  0  0  0  0  0  0  0  0  0  0
   -1.8229  -52.7511  -17.4212 C   0  0  0  0  0  0  0  0  0  0  0  0
   -0.6882  -52.4385  -18.1583 C   0  0  0  0  0  0  0  0  0  0  0  0
   -0.4348  -53.3038  -19.3381 C   0  0  0  0  0  0  0  0  0  0  0  0
    0.1479  -51.3515  -17.8634 C   0  0  0  0  0  0  0  0  0  0  0  0
   -0.2100  -50.5704  -16.7780 C   0  0  0  0  0  0  0  0  0  0  0  0
    0.5698  -49.3938  -16.4187 C   0  0  0  0  0  0  0  0  0  0  0  0
   -1.3619  -50.9067  -16.0482 C   0  0  0  0  0  0  0  0  0  0  0  0
    1.9092  -48.5875  -19.7850 C   0  0  0  0  0  0  0  0  0  0  0  0
    3.1631  -47.9585  -20.1335 C   0  0  0  0  0  0  0  0  0  0  0  0
    3.3764  -46.7848  -19.1287 C   0  0  0  0  0  0  0  0  0  0  0  0
    4.4340  -48.6831  -20.1997 C   0  0  0  0  0  0  0  0  0  0  0  0
    3.0448  -47.1780  -21.4708 C   0  0  0  0  0  0  0  0  0  0  0  0
    0.7272  -50.1355  -21.1610 C   0  0  0  0  0  0  0  0  0  0  0  0
    1.2473  -50.9292  -22.2575 C   0  0  0  0  0  0  0  0  0  0  0  0
    0.6589  -52.1076  -22.6797 C   0  0  0  0  0  0  0  0  0  0  0  0
    1.1165  -52.8931  -23.7096 C   0  0  0  0  0  0  0  0  0  0  0  0
    2.2327  -52.5141  -24.3911 C   0  0  0  0  0  0  0  0  0  0  0  0
    2.8676  -51.3246  -24.0005 C   0  0  0  0  0  0  0  0  0  0  0  0
    2.3709  -50.5612  -22.9535 C   0  0  0  0  0  0  0  0  0  0  0  0
    2.7817  -53.1942  -25.4212 O   0  0  0  0  0  0  0  0  0  0  0  0
    2.9323  -52.9756  -26.7577 C   0  0  0  0  0  0  0  0  0  0  0  0
    1.7281  -52.5412  -27.5357 C   0  0  0  0  0  0  0  0  0  0  0  0
    0.8114  -53.6258  -27.8046 N   0  0  0  0  0  0  0  0  0  0  0  0
    0.2915  -53.5875  -29.1430 C   0  0  0  0  0  0  0  0  0  0  0  0
   -0.6657  -52.4550  -29.3574 C   0  0  0  0  0  0  0  0  0  0  0  0
   -1.8040  -52.5763  -28.3868 C   0  0  0  0  0  0  0  0  0  0  0  0
   -1.2335  -52.5532  -26.9844 C   0  0  0  0  0  0  0  0  0  0  0  0
   -0.2799  -53.7300  -26.8876 C   0  0  0  0  0  0  0  0  0  0  0  0
  5  6  1  0  0  0
  6  7  2  0  0  0
  7  8  1  0  0  0
  8  9  1  0  0  0
  8 10  2  0  0  0
 10 11  1  0  0  0
 11 12  1  0  0  0
 11 13  2  0  0  0
 10  2  1  0  0  0
  2  3  2  0  0  0
  2  4  2  0  0  0
  2  1  1  0  0  0
  1 14  1  0  0  0
 14 15  1  0  0  0
 15 16  1  0  0  0
 15 17  1  0  0  0
 15 18  1  0  0  0
  1 19  1  0  0  0
 19 20  1  0  0  0
 20 21  2  0  0  0
 21 22  1  0  0  0
 22 23  2  0  0  0
 23 26  1  0  0  0
 26 27  1  0  0  0
 27 28  1  0  0  0
 28 29  1  0  0  0
 29 30  1  0  0  0
 30 31  1  0  0  0
 31 32  1  0  0  0
 32 33  1  0  0  0
 33 34  1  0  0  0
 23 24  1  0  0  0
 24 25  2  0  0  0
 13  6  1  0  0  0
 25 20  1  0  0  0
 34 29  1  0  0  0
M  END
> <minimizedAffinity>
-7.66190

> <CNNscore>
0.1204557344

> <CNNaffinity>
6.7272577286

> <CNN_VS>
0.8103367686

> <CNNaffinity_variance>
0.0538673289

$$$$
[H]c1c([H])c(C([H])([H])N(C([H])([H])C(C([H])([H])[H])(C([H])([H])[H])C([H])([H])[H])S(=O)(=O)c2c(C([H])([H])[H])c([H])c(C([H])([H])[H])c([H])c2C([H])([H])[H])c([H])c([H])c1OC([H])([H])C([H])([H])N1C([H])([H])C([H])([H])C([H])([H])C([H])([H])C1([H])[H]


 34 36  0  0  0  0  0  0  0  0999 V2000
    0.7924  -50.9103  -19.1366 N   0  0  0  0  0  0  0  0  0  0  0  0
    1.5146  -52.0242  -20.1350 S   0  0  0  0  0  0  0  0  0  0  0  0
    0.8510  -53.3768  -19.8170 O   0  0  0  0  0  0  0  0  0  0  0  0
    2.9647  -52.3253  -19.7185 O   0  0  0  0  0  0  0  0  0  0  0  0
    1.3191  -51.5287  -26.1310 C   0  0  0  0  0  0  0  0  0  0  0  0
    1.3608  -51.6613  -24.6478 C   0  0  0  0  0  0  0  0  0  0  0  0
    0.2446  -52.0045  -23.9556 C   0  0  0  0  0  0  0  0  0  0  0  0
    0.3145  -52.1195  -22.5734 C   0  0  0  0  0  0  0  0  0  0  0  0
   -0.9369  -52.5581  -21.9051 C   0  0  0  0  0  0  0  0  0  0  0  0
    1.4888  -51.8965  -21.8393 C   0  0  0  0  0  0  0  0  0  0  0  0
    2.6166  -51.5502  -22.5635 C   0  0  0  0  0  0  0  0  0  0  0  0
    3.8943  -51.3414  -21.8961 C   0  0  0  0  0  0  0  0  0  0  0  0
    2.5207  -51.4402  -23.9604 C   0  0  0  0  0  0  0  0  0  0  0  0
    0.0887  -51.3256  -18.0011 C   0  0  0  0  0  0  0  0  0  0  0  0
    0.2422  -50.7797  -16.6715 C   0  0  0  0  0  0  0  0  0  0  0  0
    1.7732  -50.6182  -16.4214 C   0  0  0  0  0  0  0  0  0  0  0  0
   -0.3820  -49.5269  -16.2408 C   0  0  0  0  0  0  0  0  0  0  0  0
   -0.1193  -51.8328  -15.5890 C   0  0  0  0  0  0  0  0  0  0  0  0
    0.3650  -49.6609  -19.6861 C   0  0  0  0  0  0  0  0  0  0  0  0
    1.3741  -48.7940  -20.2630 C   0  0  0  0  0  0  0  0  0  0  0  0
    1.3691  -48.4130  -21.5926 C   0  0  0  0  0  0  0  0  0  0  0  0
    2.3037  -47.5976  -22.1832 C   0  0  0  0  0  0  0  0  0  0  0  0
    3.3286  -47.1069  -21.4331 C   0  0  0  0  0  0  0  0  0  0  0  0
    3.3788  -47.4650  -20.0767 C   0  0  0  0  0  0  0  0  0  0  0  0
    2.4131  -48.2920  -19.5207 C   0  0  0  0  0  0  0  0  0  0  0  0
    4.3073  -46.2963  -21.8914 O   0  0  0  0  0  0  0  0  0  0  0  0
    4.3507  -45.1084  -22.5576 C   0  0  0  0  0  0  0  0  0  0  0  0
    3.4998  -44.9611  -23.7817 C   0  0  0  0  0  0  0  0  0  0  0  0
    4.2484  -45.1155  -25.0085 N   0  0  0  0  0  0  0  0  0  0  0  0
    3.4911  -44.7311  -26.1669 C   0  0  0  0  0  0  0  0  0  0  0  0
    2.3876  -45.6950  -26.4800 C   0  0  0  0  0  0  0  0  0  0  0  0
    2.9688  -47.0613  -26.6987 C   0  0  0  0  0  0  0  0  0  0  0  0
    3.7095  -47.4664  -25.4417 C   0  0  0  0  0  0  0  0  0  0  0  0
    4.7882  -46.4216  -25.2215 C   0  0  0  0  0  0  0  0  0  0  0  0
  5  6  1  0  0  0
  6  7  2  0  0  0
  7  8  1  0  0  0
  8  9  1  0  0  0
  8 10  2  0  0  0
 10 11  1  0  0  0
 11 12  1  0  0  0
 11 13  2  0  0  0
 10  2  1  0  0  0
  2  3  2  0  0  0
  2  4  2  0  0  0
  2  1  1  0  0  0
  1 14  1  0  0  0
 14 15  1  0  0  0
 15 16  1  0  0  0
 15 17  1  0  0  0
 15 18  1  0  0  0
  1 19  1  0  0  0
 19 20  1  0  0  0
 20 21  2  0  0  0
 21 22  1  0  0  0
 22 23  2  0  0  0
 23 26  1  0  0  0
 26 27  1  0  0  0
 27 28  1  0  0  0
 28 29  1  0  0  0
 29 30  1  0  0  0
 30 31  1  0  0  0
 31 32  1  0  0  0
 32 33  1  0  0  0
 33 34  1  0  0  0
 23 24  1  0  0  0
 24 25  2  0  0  0
 13  6  1  0  0  0
 25 20  1  0  0  0
 34 29  1  0  0  0
M  END
> <minimizedAffinity>
-6.61963

> <CNNscore>
0.1184107661

> <CNNaffinity>
6.1977925301

> <CNN_VS>
0.7338853478

> <CNNaffinity_variance>
0.2124605924

$$$$
[H]c1c([H])c(C([H])([H])N(C([H])([H])C(C([H])([H])[H])(C([H])([H])[H])C([H])([H])[H])S(=O)(=O)c2c(C([H])([H])[H])c([H])c(C([H])([H])[H])c([H])c2C([H])([H])[H])c([H])c([H])c1OC([H])([H])C([H])([H])N1C([H])([H])C([H])([H])C([H])([H])C([H])([H])C1([H])[H]


 34 36  0  0  0  0  0  0  0  0999 V2000
    1.4013  -50.5171  -18.4815 N   0  0  0  0  0  0  0  0  0  0  0  0
    3.0274  -50.8197  -18.6346 S   0  0  0  0  0  0  0  0  0  0  0  0
    3.1444  -52.1453  -19.4093 O   0  0  0  0  0  0  0  0  0  0  0  0
    3.6722  -51.2252  -17.2979 O   0  0  0  0  0  0  0  0  0  0  0  0
    6.7645  -47.0553  -21.4804 C   0  0  0  0  0  0  0  0  0  0  0  0
    5.8466  -47.9962  -20.7792 C   0  0  0  0  0  0  0  0  0  0  0  0
    5.5123  -49.1832  -21.3469 C   0  0  0  0  0  0  0  0  0  0  0  0
    4.6537  -50.0389  -20.6693 C   0  0  0  0  0  0  0  0  0  0  0  0
    4.3916  -51.3397  -21.3357 C   0  0  0  0  0  0  0  0  0  0  0  0
    4.1019  -49.7430  -19.4141 C   0  0  0  0  0  0  0  0  0  0  0  0
    4.4571  -48.5293  -18.8510 C   0  0  0  0  0  0  0  0  0  0  0  0
    3.9711  -48.1510  -17.5311 C   0  0  0  0  0  0  0  0  0  0  0  0
    5.3268  -47.6811  -19.5556 C   0  0  0  0  0  0  0  0  0  0  0  0
    0.6599  -51.1205  -17.4601 C   0  0  0  0  0  0  0  0  0  0  0  0
    0.0963  -50.4395  -16.3164 C   0  0  0  0  0  0  0  0  0  0  0  0
    0.9253  -50.8814  -15.0714 C   0  0  0  0  0  0  0  0  0  0  0  0
   -0.0327  -48.9831  -16.2323 C   0  0  0  0  0  0  0  0  0  0  0  0
   -1.3000  -51.0148  -15.9546 C   0  0  0  0  0  0  0  0  0  0  0  0
    0.6483  -50.1682  -19.6463 C   0  0  0  0  0  0  0  0  0  0  0  0
    0.2187  -51.2413  -20.5218 C   0  0  0  0  0  0  0  0  0  0  0  0
   -0.5769  -52.2890  -20.0947 C   0  0  0  0  0  0  0  0  0  0  0  0
   -1.0054  -53.3275  -20.8854 C   0  0  0  0  0  0  0  0  0  0  0  0
   -0.6392  -53.3615  -22.1963 C   0  0  0  0  0  0  0  0  0  0  0  0
    0.1691  -52.3202  -22.6789 C   0  0  0  0  0  0  0  0  0  0  0  0
    0.5795  -51.2901  -21.8446 C   0  0  0  0  0  0  0  0  0  0  0  0
   -0.9946  -54.3224  -23.0769 O   0  0  0  0  0  0  0  0  0  0  0  0
   -0.3445  -55.0684  -24.0138 C   0  0  0  0  0  0  0  0  0  0  0  0
   -0.6108  -54.7664  -25.4567 C   0  0  0  0  0  0  0  0  0  0  0  0
    0.5974  -54.5276  -26.2132 N   0  0  0  0  0  0  0  0  0  0  0  0
    1.2837  -53.3380  -25.7924 C   0  0  0  0  0  0  0  0  0  0  0  0
    0.5545  -52.0863  -26.1745 C   0  0  0  0  0  0  0  0  0  0  0  0
    0.3720  -52.0527  -27.6638 C   0  0  0  0  0  0  0  0  0  0  0  0
   -0.4058  -53.2859  -28.0724 C   0  0  0  0  0  0  0  0  0  0  0  0
    0.4185  -54.4813  -27.6304 C   0  0  0  0  0  0  0  0  0  0  0  0
  5  6  1  0  0  0
  6  7  2  0  0  0
  7  8  1  0  0  0
  8  9  1  0  0  0
  8 10  2  0  0  0
 10 11  1  0  0  0
 11 12  1  0  0  0
 11 13  2  0  0  0
 10  2  1  0  0  0
  2  3  2  0  0  0
  2  4  2  0  0  0
  2  1  1  0  0  0
  1 14  1  0  0  0
 14 15  1  0  0  0
 15 16  1  0  0  0
 15 17  1  0  0  0
 15 18  1  0  0  0
  1 19  1  0  0  0
 19 20  1  0  0  0
 20 21  2  0  0  0
 21 22  1  0  0  0
 22 23  2  0  0  0
 23 26  1  0  0  0
 26 27  1  0  0  0
 27 28  1  0  0  0
 28 29  1  0  0  0
 29 30  1  0  0  0
 30 31  1  0  0  0
 31 32  1  0  0  0
 32 33  1  0  0  0
 33 34  1  0  0  0
 23 24  1  0  0  0
 24 25  2  0  0  0
 13  6  1  0  0  0
 25 20  1  0  0  0
 34 29  1  0  0  0
M  END
> <minimizedAffinity>
-6.72581

> <CNNscore>
0.1141107604

> <CNNaffinity>
6.8293623924

> <CNN_VS>
0.7793037295

> <CNNaffinity_variance>
0.1352964640

$$$$
[H]OC(=O)c1c([H])c([H])c([C@]([H])(N([H])C(=O)c2c([H])c([H])c(C(C([H])([H])[H])(C([H])([H])[H])C([H])([H])[H])c([H])c2[H])C([H])([H])[H])c([H])c1[H]


 26 27  0  0  0  0  0  0  0  0999 V2000
   -0.6121  -53.2659  -22.3443 N   0  0  0  0  0  0  0  0  0  0  0  0
   -1.1397  -53.3519  -21.0057 C   0  0  0  0  0  0  0  0  0  0  0  0
   -2.0959  -54.1525  -20.7831 O   0  0  0  0  0  0  0  0  0  0  0  0
    0.1483  -52.5887  -22.5057 H   0  0  0  0  0  0  0  0  0  0  0  0
   -0.6074  -52.5656  -19.9242 C   0  0  0  0  0  0  0  0  0  0  0  0
   -0.8434  -52.7497  -18.5923 C   0  0  0  0  0  0  0  0  0  0  0  0
   -0.3070  -51.8999  -17.6125 C   0  0  0  0  0  0  0  0  0  0  0  0
    0.4837  -50.8411  -17.9745 C   0  0  0  0  0  0  0  0  0  0  0  0
    0.7221  -50.6598  -19.3242 C   0  0  0  0  0  0  0  0  0  0  0  0
    0.2029  -51.4820  -20.2738 C   0  0  0  0  0  0  0  0  0  0  0  0
    1.0505  -49.9132  -16.9803 C   0  0  0  0  0  0  0  0  0  0  0  0
    0.0239  -49.1117  -16.2558 C   0  0  0  0  0  0  0  0  0  0  0  0
    1.9979  -48.9649  -17.7206 C   0  0  0  0  0  0  0  0  0  0  0  0
    1.9107  -50.6247  -15.9505 C   0  0  0  0  0  0  0  0  0  0  0  0
   -0.7136  -55.5574  -23.0754 C   0  0  0  0  0  0  0  0  0  0  0  0
   -1.1835  -54.1248  -23.3719 C   0  0  0  0  0  0  0  0  0  0  0  0
   -0.7126  -53.7870  -24.7040 C   0  0  0  0  0  0  0  0  0  0  0  0
   -0.6589  -52.5050  -25.1636 C   0  0  0  0  0  0  0  0  0  0  0  0
   -0.1530  -52.1774  -26.4016 C   0  0  0  0  0  0  0  0  0  0  0  0
    0.3207  -53.1922  -27.2125 C   0  0  0  0  0  0  0  0  0  0  0  0
    0.2766  -54.4908  -26.7751 C   0  0  0  0  0  0  0  0  0  0  0  0
   -0.2345  -54.7830  -25.5415 C   0  0  0  0  0  0  0  0  0  0  0  0
    0.8661  -52.8069  -28.5204 C   0  0  0  0  0  0  0  0  0  0  0  0
    2.1893  -52.7046  -28.7478 O   0  0  0  0  0  0  0  0  0  0  0  0
    0.0107  -52.5835  -29.4150 O   0  0  0  0  0  0  0  0  0  0  0  0
    2.7703  -53.4508  -29.1364 H   0  0  0  0  0  0  0  0  0  0  0  0
 15 16  1  0  0  0
 16  1  1  0  0  0
  1  2  1  0  0  0
  2  3  2  0  0  0
  2  5  1  0  0  0
  5  6  2  0  0  0
  6  7  1  0  0  0
  7  8  2  0  0  0
  8  9  1  0  0  0
  9 10  2  0  0  0
  8 11  1  0  0  0
 11 12  1  0  0  0
 11 13  1  0  0  0
 11 14  1  0  0  0
 16 17  1  0  0  0
 17 18  2  0  0  0
 18 19  1  0  0  0
 19 20  2  0  0  0
 20 21  1  0  0  0
 21 22  2  0  0  0
 20 23  1  0  0  0
 23 24  1  0  0  0
 23 25  2  0  0  0
 10  5  1  0  0  0
 22 17  1  0  0  0
  1  4  1  0  0  0
 24 26  1  0  0  0
M  END
> <minimizedAffinity>
-7.76028

> <CNNscore>
0.5413969755

> <CNNaffinity>
5.8001341820

> <CNN_VS>
3.1401751041

> <CNNaffinity_variance>
0.1435454786

$$$$
[H]OC(=O)c1c([H])c([H])c([C@]([H])(N([H])C(=O)c2c([H])c([H])c(C(C([H])([H])[H])(C([H])([H])[H])C([H])([H])[H])c([H])c2[H])C([H])([H])[H])c([H])c1[H]


 26 27  0  0  0  0  0  0  0  0999 V2000
   -0.2698  -53.3804  -21.5430 N   0  0  0  0  0  0  0  0  0  0  0  0
   -0.7326  -54.2251  -22.6154 C   0  0  0  0  0  0  0  0  0  0  0  0
   -1.5388  -55.1630  -22.3412 O   0  0  0  0  0  0  0  0  0  0  0  0
    0.4054  -52.6407  -21.7872 H   0  0  0  0  0  0  0  0  0  0  0  0
   -0.3131  -54.0268  -23.9777 C   0  0  0  0  0  0  0  0  0  0  0  0
   -0.3196  -54.9596  -24.9743 C   0  0  0  0  0  0  0  0  0  0  0  0
    0.1499  -54.6777  -26.2666 C   0  0  0  0  0  0  0  0  0  0  0  0
    0.6376  -53.4333  -26.5680 C   0  0  0  0  0  0  0  0  0  0  0  0
    0.6401  -52.4910  -25.5564 C   0  0  0  0  0  0  0  0  0  0  0  0
    0.1859  -52.7630  -24.3045 C   0  0  0  0  0  0  0  0  0  0  0  0
    1.1585  -53.1009  -27.9055 C   0  0  0  0  0  0  0  0  0  0  0  0
    2.2267  -52.0617  -27.8907 C   0  0  0  0  0  0  0  0  0  0  0  0
   -0.0178  -52.6005  -28.7484 C   0  0  0  0  0  0  0  0  0  0  0  0
    1.6926  -54.3202  -28.6368 C   0  0  0  0  0  0  0  0  0  0  0  0
   -2.3068  -53.6665  -20.2922 C   0  0  0  0  0  0  0  0  0  0  0  0
   -0.7737  -53.6263  -20.1992 C   0  0  0  0  0  0  0  0  0  0  0  0
   -0.4289  -52.5618  -19.2726 C   0  0  0  0  0  0  0  0  0  0  0  0
   -0.7944  -52.5805  -17.9598 C   0  0  0  0  0  0  0  0  0  0  0  0
   -0.4139  -51.6046  -17.0661 C   0  0  0  0  0  0  0  0  0  0  0  0
    0.3723  -50.5617  -17.5200 C   0  0  0  0  0  0  0  0  0  0  0  0
    0.7524  -50.5179  -18.8365 C   0  0  0  0  0  0  0  0  0  0  0  0
    0.3554  -51.5012  -19.6990 C   0  0  0  0  0  0  0  0  0  0  0  0
    0.7718  -49.5456  -16.5380 C   0  0  0  0  0  0  0  0  0  0  0  0
    0.1224  -48.3732  -16.4090 O   0  0  0  0  0  0  0  0  0  0  0  0
    1.7606  -49.8490  -15.8224 O   0  0  0  0  0  0  0  0  0  0  0  0
   -0.6288  -48.1971  -15.7382 H   0  0  0  0  0  0  0  0  0  0  0  0
 15 16  1  0  0  0
 16  1  1  0  0  0
  1  2  1  0  0  0
  2  3  2  0  0  0
  2  5  1  0  0  0
  5  6  2  0  0  0
  6  7  1  0  0  0
  7  8  2  0  0  0
  8  9  1  0  0  0
  9 10  2  0  0  0
  8 11  1  0  0  0
 11 12  1  0  0  0
 11 13  1  0  0  0
 11 14  1  0  0  0
 16 17  1  0  0  0
 17 18  2  0  0  0
 18 19  1  0  0  0
 19 20  2  0  0  0
 20 21  1  0  0  0
 21 22  2  0  0  0
 20 23  1  0  0  0
 23 24  1  0  0  0
 23 25  2  0  0  0
 10  5  1  0  0  0
 22 17  1  0  0  0
  1  4  1  0  0  0
 24 26  1  0  0  0
M  END
> <minimizedAffinity>
-7.02877

> <CNNscore>
0.4611316323

> <CNNaffinity>
5.6470465660

> <CNN_VS>
2.6040318012

> <CNNaffinity_variance>
0.3047445714

$$$$
[H]OC(=O)c1c([H])c([H])c([C@]([H])(N([H])C(=O)c2c([H])c([H])c(C(C([H])([H])[H])(C([H])([H])[H])C([H])([H])[H])c([H])c2[H])C([H])([H])[H])c([H])c1[H]


 26 27  0  0  0  0  0  0  0  0999 V2000
   -0.2899  -52.9424  -21.8184 N   0  0  0  0  0  0  0  0  0  0  0  0
   -1.0002  -53.1676  -20.5846 C   0  0  0  0  0  0  0  0  0  0  0  0
   -1.9904  -53.9577  -20.5927 O   0  0  0  0  0  0  0  0  0  0  0  0
    0.4960  -52.2757  -21.7918 H   0  0  0  0  0  0  0  0  0  0  0  0
   -0.6118  -52.5309  -19.3538 C   0  0  0  0  0  0  0  0  0  0  0  0
   -1.0779  -52.8235  -18.1047 C   0  0  0  0  0  0  0  0  0  0  0  0
   -0.6647  -52.1143  -16.9662 C   0  0  0  0  0  0  0  0  0  0  0  0
    0.2358  -51.0881  -17.0810 C   0  0  0  0  0  0  0  0  0  0  0  0
    0.7072  -50.7966  -18.3476 C   0  0  0  0  0  0  0  0  0  0  0  0
    0.3074  -51.4827  -19.4508 C   0  0  0  0  0  0  0  0  0  0  0  0
    0.6811  -50.3049  -15.9152 C   0  0  0  0  0  0  0  0  0  0  0  0
    2.1277  -49.9483  -15.9507 C   0  0  0  0  0  0  0  0  0  0  0  0
    0.3998  -51.1397  -14.6627 C   0  0  0  0  0  0  0  0  0  0  0  0
   -0.1188  -49.0258  -15.7390 C   0  0  0  0  0  0  0  0  0  0  0  0
   -0.6937  -55.1556  -22.6755 C   0  0  0  0  0  0  0  0  0  0  0  0
   -0.7257  -53.6564  -23.0103 C   0  0  0  0  0  0  0  0  0  0  0  0
    0.1658  -53.4507  -24.1388 C   0  0  0  0  0  0  0  0  0  0  0  0
   -0.1819  -53.7632  -25.4190 C   0  0  0  0  0  0  0  0  0  0  0  0
    0.6366  -53.5096  -26.4968 C   0  0  0  0  0  0  0  0  0  0  0  0
    1.8629  -52.9124  -26.2704 C   0  0  0  0  0  0  0  0  0  0  0  0
    2.2378  -52.5895  -24.9919 C   0  0  0  0  0  0  0  0  0  0  0  0
    1.4032  -52.8571  -23.9431 C   0  0  0  0  0  0  0  0  0  0  0  0
    2.7051  -52.6433  -27.4430 C   0  0  0  0  0  0  0  0  0  0  0  0
    3.2127  -51.4232  -27.7011 O   0  0  0  0  0  0  0  0  0  0  0  0
    2.9228  -53.6336  -28.1872 O   0  0  0  0  0  0  0  0  0  0  0  0
    4.1446  -51.1112  -27.4188 H   0  0  0  0  0  0  0  0  0  0  0  0
 15 16  1  0  0  0
 16  1  1  0  0  0
  1  2  1  0  0  0
  2  3  2  0  0  0
  2  5  1  0  0  0
  5  6  2  0  0  0
  6  7  1  0  0  0
  7  8  2  0  0  0
  8  9  1  0  0  0
  9 10  2  0  0  0
  8 11  1  0  0  0
 11 12  1  0  0  0
 11 13  1  0  0  0
 11 14  1  0  0  0
 16 17  1  0  0  0
 17 18  2  0  0  0
 18 19  1  0  0  0
 19 20  2  0  0  0
 20 21  1  0  0  0
 21 22  2  0  0  0
 20 23  1  0  0  0
 23 24  1  0  0  0
 23 25  2  0  0  0
 10  5  1  0  0  0
 22 17  1  0  0  0
  1  4  1  0  0  0
 24 26  1  0  0  0
M  END
> <minimizedAffinity>
-7.65288

> <CNNscore>
0.3861418664

> <CNNaffinity>
5.6283912659

> <CNN_VS>
2.1733574867

> <CNNaffinity_variance>
0.1660272181

$$$$
[H]OC(=O)c1c([H])c([H])c([C@]([H])(N([H])C(=O)c2c([H])c([H])c(C(C([H])([H])[H])(C([H])([H])[H])C([H])([H])[H])c([H])c2[H])C([H])([H])[H])c([H])c1[H]


 26 27  0  0  0  0  0  0  0  0999 V2000
   -0.5643  -52.3251  -19.5141 N   0  0  0  0  0  0  0  0  0  0  0  0
    0.0490  -53.2931  -20.3884 C   0  0  0  0  0  0  0  0  0  0  0  0
    0.5636  -54.3307  -19.8751 O   0  0  0  0  0  0  0  0  0  0  0  0
   -0.9531  -51.4771  -19.9530 H   0  0  0  0  0  0  0  0  0  0  0  0
    0.0839  -53.1170  -21.8162 C   0  0  0  0  0  0  0  0  0  0  0  0
    0.6682  -52.0863  -22.4943 C   0  0  0  0  0  0  0  0  0  0  0  0
    0.6127  -51.9834  -23.8929 C   0  0  0  0  0  0  0  0  0  0  0  0
   -0.0434  -52.9341  -24.6298 C   0  0  0  0  0  0  0  0  0  0  0  0
   -0.6316  -53.9775  -23.9393 C   0  0  0  0  0  0  0  0  0  0  0  0
   -0.5786  -54.0779  -22.5848 C   0  0  0  0  0  0  0  0  0  0  0  0
   -0.1429  -52.8541  -26.0976 C   0  0  0  0  0  0  0  0  0  0  0  0
    0.0373  -54.1655  -26.7823 C   0  0  0  0  0  0  0  0  0  0  0  0
    0.9365  -51.8819  -26.5818 C   0  0  0  0  0  0  0  0  0  0  0  0
   -1.4623  -52.2571  -26.5554 C   0  0  0  0  0  0  0  0  0  0  0  0
   -1.9700  -53.1934  -17.7631 C   0  0  0  0  0  0  0  0  0  0  0  0
   -0.5899  -52.5993  -18.0843 C   0  0  0  0  0  0  0  0  0  0  0  0
   -0.4456  -51.3951  -17.2845 C   0  0  0  0  0  0  0  0  0  0  0  0
    0.4337  -50.4025  -17.5991 C   0  0  0  0  0  0  0  0  0  0  0  0
    0.5262  -49.2326  -16.8789 C   0  0  0  0  0  0  0  0  0  0  0  0
   -0.3086  -49.0577  -15.7906 C   0  0  0  0  0  0  0  0  0  0  0  0
   -1.2010  -50.0416  -15.4514 C   0  0  0  0  0  0  0  0  0  0  0  0
   -1.2660  -51.1928  -16.1854 C   0  0  0  0  0  0  0  0  0  0  0  0
   -0.1938  -47.7931  -15.0530 C   0  0  0  0  0  0  0  0  0  0  0  0
   -0.8716  -46.6860  -15.4105 O   0  0  0  0  0  0  0  0  0  0  0  0
    0.5789  -47.8176  -14.0608 O   0  0  0  0  0  0  0  0  0  0  0  0
   -1.7742  -46.4071  -15.0193 H   0  0  0  0  0  0  0  0  0  0  0  0
 15 16  1  0  0  0
 16  1  1  0  0  0
  1  2  1  0  0  0
  2  3  2  0  0  0
  2  5  1  0  0  0
  5  6  2  0  0  0
  6  7  1  0  0  0
  7  8  2  0  0  0
  8  9  1  0  0  0
  9 10  2  0  0  0
  8 11  1  0  0  0
 11 12  1  0  0  0
 11 13  1  0  0  0
 11 14  1  0  0  0
 16 17  1  0  0  0
 17 18  2  0  0  0
 18 19  1  0  0  0
 19 20  2  0  0  0
 20 21  1  0  0  0
 21 22  2  0  0  0
 20 23  1  0  0  0
 23 24  1  0  0  0
 23 25  2  0  0  0
 10  5  1  0  0  0
 22 17  1  0  0  0
  1  4  1  0  0  0
 24 26  1  0  0  0
M  END
> <minimizedAffinity>
-7.47215

> <CNNscore>
0.3750425577

> <CNNaffinity>
5.2323083878

> <CNN_VS>
1.9623383284

> <CNNaffinity_variance>
0.1604397595

$$$$
[H]OC(=O)c1c([H])c([H])c([C@]([H])(N([H])C(=O)c2c([H])c([H])c(C(C([H])([H])[H])(C([H])([H])[H])C([H])([H])[H])c([H])c2[H])C([H])([H])[H])c([H])c1[H]


 26 27  0  0  0  0  0  0  0  0999 V2000
   -0.7427  -52.5057  -19.5567 N   0  0  0  0  0  0  0  0  0  0  0  0
   -0.0781  -53.4532  -20.4159 C   0  0  0  0  0  0  0  0  0  0  0  0
    0.5968  -54.3831  -19.8826 O   0  0  0  0  0  0  0  0  0  0  0  0
   -1.2642  -51.7434  -20.0145 H   0  0  0  0  0  0  0  0  0  0  0  0
   -0.1679  -53.3756  -21.8502 C   0  0  0  0  0  0  0  0  0  0  0  0
   -0.7258  -54.3037  -22.6813 C   0  0  0  0  0  0  0  0  0  0  0  0
   -0.7279  -54.1539  -24.0768 C   0  0  0  0  0  0  0  0  0  0  0  0
   -0.1580  -53.0495  -24.6536 C   0  0  0  0  0  0  0  0  0  0  0  0
    0.4037  -52.1109  -23.8082 C   0  0  0  0  0  0  0  0  0  0  0  0
    0.4065  -52.2552  -22.4566 C   0  0  0  0  0  0  0  0  0  0  0  0
   -0.1207  -52.8622  -26.1145 C   0  0  0  0  0  0  0  0  0  0  0  0
   -1.3807  -52.3009  -26.6787 C   0  0  0  0  0  0  0  0  0  0  0  0
    0.1487  -54.2295  -26.7491 C   0  0  0  0  0  0  0  0  0  0  0  0
    1.0321  -51.9762  -26.5540 C   0  0  0  0  0  0  0  0  0  0  0  0
   -1.9908  -53.1926  -17.6160 C   0  0  0  0  0  0  0  0  0  0  0  0
   -0.6314  -52.6792  -18.1152 C   0  0  0  0  0  0  0  0  0  0  0  0
   -0.3655  -51.4296  -17.4236 C   0  0  0  0  0  0  0  0  0  0  0  0
   -0.9866  -51.0845  -16.2606 C   0  0  0  0  0  0  0  0  0  0  0  0
   -0.6890  -49.9308  -15.5704 C   0  0  0  0  0  0  0  0  0  0  0  0
    0.2811  -49.0869  -16.0791 C   0  0  0  0  0  0  0  0  0  0  0  0
    0.9198  -49.4097  -17.2485 C   0  0  0  0  0  0  0  0  0  0  0  0
    0.5992  -50.5614  -17.9110 C   0  0  0  0  0  0  0  0  0  0  0  0
    0.5838  -47.8724  -15.3112 C   0  0  0  0  0  0  0  0  0  0  0  0
    1.3118  -46.8605  -15.8202 O   0  0  0  0  0  0  0  0  0  0  0  0
    0.1115  -47.8414  -14.1459 O   0  0  0  0  0  0  0  0  0  0  0  0
    0.9174  -46.0331  -16.2733 H   0  0  0  0  0  0  0  0  0  0  0  0
 15 16  1  0  0  0
 16  1  1  0  0  0
  1  2  1  0  0  0
  2  3  2  0  0  0
  2  5  1  0  0  0
  5  6  2  0  0  0
  6  7  1  0  0  0
  7  8  2  0  0  0
  8  9  1  0  0  0
  9 10  2  0  0  0
  8 11  1  0  0  0
 11 12  1  0  0  0
 11 13  1  0  0  0
 11 14  1  0  0  0
 16 17  1  0  0  0
 17 18  2  0  0  0
 18 19  1  0  0  0
 19 20  2  0  0  0
 20 21  1  0  0  0
 21 22  2  0  0  0
 20 23  1  0  0  0
 23 24  1  0  0  0
 23 25  2  0  0  0
 10  5  1  0  0  0
 22 17  1  0  0  0
  1  4  1  0  0  0
 24 26  1  0  0  0
M  END
> <minimizedAffinity>
-7.37641

> <CNNscore>
0.3551786542

> <CNNaffinity>
5.3038058281

> <CNN_VS>
1.8837985992

> <CNNaffinity_variance>
0.1890114695

$$$$
[H]OC(=O)c1c([H])c([H])c([C@]([H])(N([H])C(=O)c2c([H])c([H])c(C(C([H])([H])[H])(C([H])([H])[H])C([H])([H])[H])c([H])c2[H])C([H])([H])[H])c([H])c1[H]


 26 27  0  0  0  0  0  0  0  0999 V2000
   -0.4195  -51.9223  -21.4923 N   0  0  0  0  0  0  0  0  0  0  0  0
   -0.5074  -52.7111  -20.2891 C   0  0  0  0  0  0  0  0  0  0  0  0
   -0.7641  -53.9472  -20.3940 O   0  0  0  0  0  0  0  0  0  0  0  0
   -0.2352  -50.9143  -21.3794 H   0  0  0  0  0  0  0  0  0  0  0  0
   -0.3046  -52.1378  -18.9848 C   0  0  0  0  0  0  0  0  0  0  0  0
    0.5641  -51.1351  -18.6635 C   0  0  0  0  0  0  0  0  0  0  0  0
    0.7181  -50.6707  -17.3480 C   0  0  0  0  0  0  0  0  0  0  0  0
   -0.0143  -51.2233  -16.3305 C   0  0  0  0  0  0  0  0  0  0  0  0
   -0.8947  -52.2369  -16.6606 C   0  0  0  0  0  0  0  0  0  0  0  0
   -1.0444  -52.6874  -17.9342 C   0  0  0  0  0  0  0  0  0  0  0  0
    0.1307  -50.7798  -14.9330 C   0  0  0  0  0  0  0  0  0  0  0  0
   -0.7920  -51.4693  -13.9873 C   0  0  0  0  0  0  0  0  0  0  0  0
   -0.1440  -49.2739  -14.8950 C   0  0  0  0  0  0  0  0  0  0  0  0
    1.5498  -50.9470  -14.4182 C   0  0  0  0  0  0  0  0  0  0  0  0
   -0.2955  -54.0790  -22.5549 C   0  0  0  0  0  0  0  0  0  0  0  0
   -0.6006  -52.5891  -22.7740 C   0  0  0  0  0  0  0  0  0  0  0  0
    0.3228  -52.1075  -23.7868 C   0  0  0  0  0  0  0  0  0  0  0  0
   -0.0266  -51.9697  -25.0969 C   0  0  0  0  0  0  0  0  0  0  0  0
    0.8270  -51.4530  -26.0458 C   0  0  0  0  0  0  0  0  0  0  0  0
    2.0921  -51.0573  -25.6525 C   0  0  0  0  0  0  0  0  0  0  0  0
    2.4696  -51.1870  -24.3409 C   0  0  0  0  0  0  0  0  0  0  0  0
    1.5993  -51.7064  -23.4238 C   0  0  0  0  0  0  0  0  0  0  0  0
    2.9720  -50.4979  -26.6865 C   0  0  0  0  0  0  0  0  0  0  0  0
    3.3781  -51.2138  -27.7520 O   0  0  0  0  0  0  0  0  0  0  0  0
    3.3164  -49.3011  -26.5094 O   0  0  0  0  0  0  0  0  0  0  0  0
    2.9153  -51.2099  -28.6638 H   0  0  0  0  0  0  0  0  0  0  0  0
 15 16  1  0  0  0
 16  1  1  0  0  0
  1  2  1  0  0  0
  2  3  2  0  0  0
  2  5  1  0  0  0
  5  6  2  0  0  0
  6  7  1  0  0  0
  7  8  2  0  0  0
  8  9  1  0  0  0
  9 10  2  0  0  0
  8 11  1  0  0  0
 11 12  1  0  0  0
 11 13  1  0  0  0
 11 14  1  0  0  0
 16 17  1  0  0  0
 17 18  2  0  0  0
 18 19  1  0  0  0
 19 20  2  0  0  0
 20 21  1  0  0  0
 21 22  2  0  0  0
 20 23  1  0  0  0
 23 24  1  0  0  0
 23 25  2  0  0  0
 10  5  1  0  0  0
 22 17  1  0  0  0
  1  4  1  0  0  0
 24 26  1  0  0  0
M  END
> <minimizedAffinity>
-6.92854

> <CNNscore>
0.2527891695

> <CNNaffinity>
5.3922562599

> <CNN_VS>
1.3631039858

> <CNNaffinity_variance>
0.2883037329

$$$$
[H]OC(=O)c1c([H])c([H])c([C@]([H])(N([H])C(=O)c2c([H])c([H])c(C(C([H])([H])[H])(C([H])([H])[H])C([H])([H])[H])c([H])c2[H])C([H])([H])[H])c([H])c1[H]


 26 27  0  0  0  0  0  0  0  0999 V2000
    0.3604  -52.1030  -20.1724 N   0  0  0  0  0  0  0  0  0  0  0  0
    0.8504  -52.4588  -21.4804 C   0  0  0  0  0  0  0  0  0  0  0  0
    0.5994  -53.6181  -21.9252 O   0  0  0  0  0  0  0  0  0  0  0  0
    0.5995  -51.1634  -19.8220 H   0  0  0  0  0  0  0  0  0  0  0  0
    1.6028  -51.5369  -22.2898 C   0  0  0  0  0  0  0  0  0  0  0  0
    2.4008  -50.5247  -21.8405 C   0  0  0  0  0  0  0  0  0  0  0  0
    3.0643  -49.6500  -22.7150 C   0  0  0  0  0  0  0  0  0  0  0  0
    2.9253  -49.7918  -24.0706 C   0  0  0  0  0  0  0  0  0  0  0  0
    2.1181  -50.8198  -24.5214 C   0  0  0  0  0  0  0  0  0  0  0  0
    1.4750  -51.6672  -23.6753 C   0  0  0  0  0  0  0  0  0  0  0  0
    3.5875  -48.8839  -25.0234 C   0  0  0  0  0  0  0  0  0  0  0  0
    3.1317  -49.0576  -26.4316 C   0  0  0  0  0  0  0  0  0  0  0  0
    5.0933  -49.1509  -24.9460 C   0  0  0  0  0  0  0  0  0  0  0  0
    3.4140  -47.4231  -24.6452 C   0  0  0  0  0  0  0  0  0  0  0  0
   -1.6497  -53.4216  -20.2999 C   0  0  0  0  0  0  0  0  0  0  0  0
   -0.4255  -53.0826  -19.4356 C   0  0  0  0  0  0  0  0  0  0  0  0
   -0.9232  -52.5612  -18.1742 C   0  0  0  0  0  0  0  0  0  0  0  0
   -0.3014  -51.5560  -17.4957 C   0  0  0  0  0  0  0  0  0  0  0  0
   -0.8066  -51.0172  -16.3336 C   0  0  0  0  0  0  0  0  0  0  0  0
   -1.9949  -51.5174  -15.8342 C   0  0  0  0  0  0  0  0  0  0  0  0
   -2.6398  -52.5299  -16.4964 C   0  0  0  0  0  0  0  0  0  0  0  0
   -2.1103  -53.0449  -17.6465 C   0  0  0  0  0  0  0  0  0  0  0  0
   -2.5128  -50.9111  -14.6010 C   0  0  0  0  0  0  0  0  0  0  0  0
   -1.7445  -50.7262  -13.5109 O   0  0  0  0  0  0  0  0  0  0  0  0
   -3.7236  -50.5722  -14.6359 O   0  0  0  0  0  0  0  0  0  0  0  0
   -1.2472  -49.8600  -13.2920 H   0  0  0  0  0  0  0  0  0  0  0  0
 15 16  1  0  0  0
 16  1  1  0  0  0
  1  2  1  0  0  0
  2  3  2  0  0  0
  2  5  1  0  0  0
  5  6  2  0  0  0
  6  7  1  0  0  0
  7  8  2  0  0  0
  8  9  1  0  0  0
  9 10  2  0  0  0
  8 11  1  0  0  0
 11 12  1  0  0  0
 11 13  1  0  0  0
 11 14  1  0  0  0
 16 17  1  0  0  0
 17 18  2  0  0  0
 18 19  1  0  0  0
 19 20  2  0  0  0
 20 21  1  0  0  0
 21 22  2  0  0  0
 20 23  1  0  0  0
 23 24  1  0  0  0
 23 25  2  0  0  0
 10  5  1  0  0  0
 22 17  1  0  0  0
  1  4  1  0  0  0
 24 26  1  0  0  0
M  END
> <minimizedAffinity>
-5.97123

> <CNNscore>
0.2115755230

> <CNNaffinity>
5.1068863869

> <CNN_VS>
1.0804921389

> <CNNaffinity_variance>
0.2874571681

$$$$
[H]OC(=O)c1c([H])c([H])c([C@]([H])(N([H])C(=O)c2c([H])c([H])c(C(C([H])([H])[H])(C([H])([H])[H])C([H])([H])[H])c([H])c2[H])C([H])([H])[H])c([H])c1[H]


 26 27  0  0  0  0  0  0  0  0999 V2000
    0.4064  -50.8198  -18.3878 N   0  0  0  0  0  0  0  0  0  0  0  0
    0.8329  -50.1323  -19.5807 C   0  0  0  0  0  0  0  0  0  0  0  0
    1.2485  -48.9403  -19.4755 O   0  0  0  0  0  0  0  0  0  0  0  0
    0.0484  -51.7797  -18.5027 H   0  0  0  0  0  0  0  0  0  0  0  0
    0.8072  -50.7622  -20.8744 C   0  0  0  0  0  0  0  0  0  0  0  0
    1.6363  -50.4951  -21.9254 C   0  0  0  0  0  0  0  0  0  0  0  0
    1.5040  -51.1385  -23.1657 C   0  0  0  0  0  0  0  0  0  0  0  0
    0.5186  -52.0707  -23.3584 C   0  0  0  0  0  0  0  0  0  0  0  0
   -0.3173  -52.3401  -22.2907 C   0  0  0  0  0  0  0  0  0  0  0  0
   -0.1902  -51.7173  -21.0892 C   0  0  0  0  0  0  0  0  0  0  0  0
    0.3318  -52.7551  -24.6498 C   0  0  0  0  0  0  0  0  0  0  0  0
    1.6096  -53.1183  -25.3252 C   0  0  0  0  0  0  0  0  0  0  0  0
   -0.4681  -51.8173  -25.5584 C   0  0  0  0  0  0  0  0  0  0  0  0
   -0.5108  -54.0121  -24.5207 C   0  0  0  0  0  0  0  0  0  0  0  0
    1.5354  -50.8744  -16.2622 C   0  0  0  0  0  0  0  0  0  0  0  0
    0.5009  -50.1219  -17.1133 C   0  0  0  0  0  0  0  0  0  0  0  0
   -0.7514  -50.1368  -16.3771 C   0  0  0  0  0  0  0  0  0  0  0  0
   -1.5154  -51.2576  -16.2452 C   0  0  0  0  0  0  0  0  0  0  0  0
   -2.6692  -51.2893  -15.4943 C   0  0  0  0  0  0  0  0  0  0  0  0
   -3.0692  -50.1349  -14.8469 C   0  0  0  0  0  0  0  0  0  0  0  0
   -2.3197  -48.9930  -14.9646 C   0  0  0  0  0  0  0  0  0  0  0  0
   -1.1806  -48.9940  -15.7200 C   0  0  0  0  0  0  0  0  0  0  0  0
   -4.2964  -50.2069  -14.0435 C   0  0  0  0  0  0  0  0  0  0  0  0
   -4.5424  -49.3604  -13.0258 O   0  0  0  0  0  0  0  0  0  0  0  0
   -5.1040  -51.1122  -14.3756 O   0  0  0  0  0  0  0  0  0  0  0  0
   -5.0846  -48.4974  -13.1075 H   0  0  0  0  0  0  0  0  0  0  0  0
 15 16  1  0  0  0
 16  1  1  0  0  0
  1  2  1  0  0  0
  2  3  2  0  0  0
  2  5  1  0  0  0
  5  6  2  0  0  0
  6  7  1  0  0  0
  7  8  2  0  0  0
  8  9  1  0  0  0
  9 10  2  0  0  0
  8 11  1  0  0  0
 11 12  1  0  0  0
 11 13  1  0  0  0
 11 14  1  0  0  0
 16 17  1  0  0  0
 17 18  2  0  0  0
 18 19  1  0  0  0
 19 20  2  0  0  0
 20 21  1  0  0  0
 21 22  2  0  0  0
 20 23  1  0  0  0
 23 24  1  0  0  0
 23 25  2  0  0  0
 10  5  1  0  0  0
 22 17  1  0  0  0
  1  4  1  0  0  0
 24 26  1  0  0  0
M  END
> <minimizedAffinity>
-7.15293

> <CNNscore>
0.2091007233

> <CNNaffinity>
5.0646204948

> <CNN_VS>
1.0590157509

> <CNNaffinity_variance>
0.1040953398

$$$$
[H]OC(=O)c1c([H])c([H])c([C@]([H])(N([H])C(=O)c2c([H])c([H])c(C(C([H])([H])[H])(C([H])([H])[H])C([H])([H])[H])c([H])c2[H])C([H])([H])[H])c([H])c1[H]


 26 27  0  0  0  0  0  0  0  0999 V2000
   -0.0405  -53.1371  -22.2218 N   0  0  0  0  0  0  0  0  0  0  0  0
   -0.5017  -52.8693  -20.8826 C   0  0  0  0  0  0  0  0  0  0  0  0
   -1.6725  -53.2321  -20.5626 O   0  0  0  0  0  0  0  0  0  0  0  0
    0.9060  -52.8094  -22.4658 H   0  0  0  0  0  0  0  0  0  0  0  0
    0.3289  -52.2145  -19.9067 C   0  0  0  0  0  0  0  0  0  0  0  0
   -0.0816  -51.6686  -18.7248 C   0  0  0  0  0  0  0  0  0  0  0  0
    0.8040  -51.0129  -17.8555 C   0  0  0  0  0  0  0  0  0  0  0  0
    2.1311  -50.9008  -18.1770 C   0  0  0  0  0  0  0  0  0  0  0  0
    2.5430  -51.4572  -19.3737 C   0  0  0  0  0  0  0  0  0  0  0  0
    1.6861  -52.0921  -20.2164 C   0  0  0  0  0  0  0  0  0  0  0  0
    3.0908  -50.2036  -17.3031 C   0  0  0  0  0  0  0  0  0  0  0  0
    3.6965  -51.0791  -16.2602 C   0  0  0  0  0  0  0  0  0  0  0  0
    2.3443  -49.0531  -16.6219 C   0  0  0  0  0  0  0  0  0  0  0  0
    4.2161  -49.5502  -18.0864 C   0  0  0  0  0  0  0  0  0  0  0  0
   -0.7116  -55.3430  -22.9141 C   0  0  0  0  0  0  0  0  0  0  0  0
   -0.9315  -53.8385  -23.1353 C   0  0  0  0  0  0  0  0  0  0  0  0
   -0.6289  -53.5620  -24.5290 C   0  0  0  0  0  0  0  0  0  0  0  0
   -0.1787  -54.5185  -25.3891 C   0  0  0  0  0  0  0  0  0  0  0  0
    0.0471  -54.2732  -26.7251 C   0  0  0  0  0  0  0  0  0  0  0  0
   -0.1932  -53.0025  -27.2144 C   0  0  0  0  0  0  0  0  0  0  0  0
   -0.6447  -52.0213  -26.3700 C   0  0  0  0  0  0  0  0  0  0  0  0
   -0.8563  -52.2967  -25.0480 C   0  0  0  0  0  0  0  0  0  0  0  0
    0.0445  -52.7785  -28.6461 C   0  0  0  0  0  0  0  0  0  0  0  0
    1.2582  -52.9331  -29.2081 O   0  0  0  0  0  0  0  0  0  0  0  0
   -0.9664  -52.4365  -29.3118 O   0  0  0  0  0  0  0  0  0  0  0  0
    1.5814  -53.7894  -29.6639 H   0  0  0  0  0  0  0  0  0  0  0  0
 15 16  1  0  0  0
 16  1  1  0  0  0
  1  2  1  0  0  0
  2  3  2  0  0  0
  2  5  1  0  0  0
  5  6  2  0  0  0
  6  7  1  0  0  0
  7  8  2  0  0  0
  8  9  1  0  0  0
  9 10  2  0  0  0
  8 11  1  0  0  0
 11 12  1  0  0  0
 11 13  1  0  0  0
 11 14  1  0  0  0
 16 17  1  0  0  0
 17 18  2  0  0  0
 18 19  1  0  0  0
 19 20  2  0  0  0
 20 21  1  0  0  0
 21 22  2  0  0  0
 20 23  1  0  0  0
 23 24  1  0  0  0
 23 25  2  0  0  0
 10  5  1  0  0  0
 22 17  1  0  0  0
  1  4  1  0  0  0
 24 26  1  0  0  0
M  END
> <minimizedAffinity>
-7.50777

> <CNNscore>
0.1941849887

> <CNNaffinity>
5.3708295822

> <CNN_VS>
1.0429345369

> <CNNaffinity_variance>
0.1178107113

$$$$
[H]c1nc2c(c(N([H])[H])nn2[H])c([H])c1-c1c([H])c([H])c([H])c(C(F)(F)F)c1[H]


 23 25  0  0  0  0  0  0  0  0999 V2000
    0.0003  -52.6786  -21.1014 C   0  0  0  0  0  0  0  0  0  0  0  0
   -0.9351  -53.5440  -20.5281 C   0  0  0  0  0  0  0  0  0  0  0  0
   -1.5467  -54.5507  -21.2266 N   0  0  0  0  0  0  0  0  0  0  0  0
   -1.2453  -54.7042  -22.5230 C   0  0  0  0  0  0  0  0  0  0  0  0
   -1.7048  -55.5619  -23.4663 N   0  0  0  0  0  0  0  0  0  0  0  0
   -1.1350  -55.2837  -24.5948 N   0  0  0  0  0  0  0  0  0  0  0  0
   -0.2681  -54.2473  -24.4413 C   0  0  0  0  0  0  0  0  0  0  0  0
    0.5586  -53.6523  -25.4070 N   0  0  0  0  0  0  0  0  0  0  0  0
   -0.3340  -53.8690  -23.1223 C   0  0  0  0  0  0  0  0  0  0  0  0
    0.3096  -52.8499  -22.4306 C   0  0  0  0  0  0  0  0  0  0  0  0
   -2.3626  -56.3529  -23.2558 H   0  0  0  0  0  0  0  0  0  0  0  0
    1.4255  -54.2192  -25.7353 H   0  0  0  0  0  0  0  0  0  0  0  0
    0.4610  -52.7628  -25.8685 H   0  0  0  0  0  0  0  0  0  0  0  0
    1.5986  -49.4248  -20.0452 C   0  0  0  0  0  0  0  0  0  0  0  0
    1.2756  -49.3606  -18.7169 C   0  0  0  0  0  0  0  0  0  0  0  0
    0.5715  -50.4433  -18.1615 C   0  0  0  0  0  0  0  0  0  0  0  0
    0.2301  -51.5176  -18.9349 C   0  0  0  0  0  0  0  0  0  0  0  0
    0.5586  -51.5864  -20.3021 C   0  0  0  0  0  0  0  0  0  0  0  0
    1.2487  -50.5268  -20.8377 C   0  0  0  0  0  0  0  0  0  0  0  0
    1.3742  -47.6986  -21.5614 F   0  0  0  0  0  0  0  0  0  0  0  0
    2.3188  -48.2435  -20.6438 C   0  0  0  0  0  0  0  0  0  0  0  0
    2.3388  -47.3386  -19.5715 F   0  0  0  0  0  0  0  0  0  0  0  0
    3.4882  -48.5173  -21.1731 F   0  0  0  0  0  0  0  0  0  0  0  0
 20 21  1  0  0  0
 21 22  1  0  0  0
 21 23  1  0  0  0
 21 14  1  0  0  0
 14 15  2  0  0  0
 15 16  1  0  0  0
 16 17  2  0  0  0
 17 18  1  0  0  0
 18 19  2  0  0  0
 18  1  1  0  0  0
  1  2  2  0  0  0
  2  3  1  0  0  0
  3  4  2  0  0  0
  4  5  1  0  0  0
  5  6  1  0  0  0
  6  7  2  0  0  0
  7  8  1  0  0  0
  7  9  1  0  0  0
  9 10  2  0  0  0
 19 14  1  0  0  0
 10  1  1  0  0  0
  9  4  1  0  0  0
  5 11  1  0  0  0
  8 12  1  0  0  0
  8 13  1  0  0  0
M  END
> <minimizedAffinity>
-7.64587

> <CNNscore>
0.9721258879

> <CNNaffinity>
5.9893102646

> <CNN_VS>
5.8223633766

> <CNNaffinity_variance>
0.0423638970

$$$$
[H]c1nc2c(c(N([H])[H])nn2[H])c([H])c1-c1c([H])c([H])c([H])c(C(F)(F)F)c1[H]


 23 25  0  0  0  0  0  0  0  0999 V2000
   -0.2315  -52.8377  -21.8825 C   0  0  0  0  0  0  0  0  0  0  0  0
   -1.1329  -53.7831  -21.3862 C   0  0  0  0  0  0  0  0  0  0  0  0
   -1.5511  -54.8677  -22.1102 N   0  0  0  0  0  0  0  0  0  0  0  0
   -1.0857  -55.0220  -23.3572 C   0  0  0  0  0  0  0  0  0  0  0  0
   -1.3404  -55.9486  -24.3128 N   0  0  0  0  0  0  0  0  0  0  0  0
   -0.6743  -55.6407  -25.3791 N   0  0  0  0  0  0  0  0  0  0  0  0
    0.0567  -54.5136  -25.1682 C   0  0  0  0  0  0  0  0  0  0  0  0
    0.9246  -53.8590  -26.0560 N   0  0  0  0  0  0  0  0  0  0  0  0
   -0.2019  -54.1100  -23.8808 C   0  0  0  0  0  0  0  0  0  0  0  0
    0.2473  -53.0098  -23.1603 C   0  0  0  0  0  0  0  0  0  0  0  0
   -1.9329  -56.7998  -24.1480 H   0  0  0  0  0  0  0  0  0  0  0  0
    1.8780  -54.3381  -26.2616 H   0  0  0  0  0  0  0  0  0  0  0  0
    0.7901  -52.9976  -26.5595 H   0  0  0  0  0  0  0  0  0  0  0  0
    0.5383  -50.5680  -18.9647 C   0  0  0  0  0  0  0  0  0  0  0  0
    1.1423  -49.5035  -19.5766 C   0  0  0  0  0  0  0  0  0  0  0  0
    1.2358  -49.5215  -20.9792 C   0  0  0  0  0  0  0  0  0  0  0  0
    0.7335  -50.5732  -21.6937 C   0  0  0  0  0  0  0  0  0  0  0  0
    0.1133  -51.6713  -21.0677 C   0  0  0  0  0  0  0  0  0  0  0  0
    0.0229  -51.6461  -19.6977 C   0  0  0  0  0  0  0  0  0  0  0  0
    1.8132  -50.8560  -17.0619 F   0  0  0  0  0  0  0  0  0  0  0  0
    0.4764  -50.5613  -17.4585 C   0  0  0  0  0  0  0  0  0  0  0  0
    0.3128  -49.1961  -17.1782 F   0  0  0  0  0  0  0  0  0  0  0  0
   -0.4282  -51.3568  -16.9373 F   0  0  0  0  0  0  0  0  0  0  0  0
 20 21  1  0  0  0
 21 22  1  0  0  0
 21 23  1  0  0  0
 21 14  1  0  0  0
 14 15  2  0  0  0
 15 16  1  0  0  0
 16 17  2  0  0  0
 17 18  1  0  0  0
 18 19  2  0  0  0
 18  1  1  0  0  0
  1  2  2  0  0  0
  2  3  1  0  0  0
  3  4  2  0  0  0
  4  5  1  0  0  0
  5  6  1  0  0  0
  6  7  2  0  0  0
  7  8  1  0  0  0
  7  9  1  0  0  0
  9 10  2  0  0  0
 19 14  1  0  0  0
 10  1  1  0  0  0
  9  4  1  0  0  0
  5 11  1  0  0  0
  8 12  1  0  0  0
  8 13  1  0  0  0
M  END
> <minimizedAffinity>
-8.05112

> <CNNscore>
0.9538967609

> <CNNaffinity>
6.0507841110

> <CNN_VS>
5.7718234062

> <CNNaffinity_variance>
0.0696320683

$$$$
[H]c1nc2c(c(N([H])[H])nn2[H])c([H])c1-c1c([H])c([H])c([H])c(C(F)(F)F)c1[H]


 23 25  0  0  0  0  0  0  0  0999 V2000
    0.2682  -52.4275  -21.5547 C   0  0  0  0  0  0  0  0  0  0  0  0
   -0.5607  -53.2466  -20.7835 C   0  0  0  0  0  0  0  0  0  0  0  0
   -1.2153  -54.3365  -21.2923 N   0  0  0  0  0  0  0  0  0  0  0  0
   -1.0657  -54.6227  -22.5926 C   0  0  0  0  0  0  0  0  0  0  0  0
   -1.6040  -55.5877  -23.3774 N   0  0  0  0  0  0  0  0  0  0  0  0
   -1.1833  -55.4206  -24.5901 N   0  0  0  0  0  0  0  0  0  0  0  0
   -0.3416  -54.3544  -24.6535 C   0  0  0  0  0  0  0  0  0  0  0  0
    0.3421  -53.8491  -25.7703 N   0  0  0  0  0  0  0  0  0  0  0  0
   -0.2627  -53.8371  -23.3833 C   0  0  0  0  0  0  0  0  0  0  0  0
    0.4223  -52.7348  -22.8864 C   0  0  0  0  0  0  0  0  0  0  0  0
   -2.2034  -56.3657  -23.0061 H   0  0  0  0  0  0  0  0  0  0  0  0
    1.1832  -54.4286  -26.1412 H   0  0  0  0  0  0  0  0  0  0  0  0
    0.1586  -53.0173  -26.3070 H   0  0  0  0  0  0  0  0  0  0  0  0
    2.7184  -50.0493  -19.9426 C   0  0  0  0  0  0  0  0  0  0  0  0
    2.1158  -48.8361  -20.1369 C   0  0  0  0  0  0  0  0  0  0  0  0
    0.8541  -48.8238  -20.7569 C   0  0  0  0  0  0  0  0  0  0  0  0
    0.2613  -49.9930  -21.1449 C   0  0  0  0  0  0  0  0  0  0  0  0
    0.8789  -51.2429  -20.9488 C   0  0  0  0  0  0  0  0  0  0  0  0
    2.1100  -51.2480  -20.3403 C   0  0  0  0  0  0  0  0  0  0  0  0
    3.9045  -50.7829  -18.1031 F   0  0  0  0  0  0  0  0  0  0  0  0
    4.0881  -50.0529  -19.3133 C   0  0  0  0  0  0  0  0  0  0  0  0
    4.7945  -50.9265  -20.1542 F   0  0  0  0  0  0  0  0  0  0  0  0
    4.6267  -48.8670  -19.1510 F   0  0  0  0  0  0  0  0  0  0  0  0
 20 21  1  0  0  0
 21 22  1  0  0  0
 21 23  1  0  0  0
 21 14  1  0  0  0
 14 15  2  0  0  0
 15 16  1  0  0  0
 16 17  2  0  0  0
 17 18  1  0  0  0
 18 19  2  0  0  0
 18  1  1  0  0  0
  1  2  2  0  0  0
  2  3  1  0  0  0
  3  4  2  0  0  0
  4  5  1  0  0  0
  5  6  1  0  0  0
  6  7  2  0  0  0
  7  8  1  0  0  0
  7  9  1  0  0  0
  9 10  2  0  0  0
 19 14  1  0  0  0
 10  1  1  0  0  0
  9  4  1  0  0  0
  5 11  1  0  0  0
  8 12  1  0  0  0
  8 13  1  0  0  0
M  END
> <minimizedAffinity>
-7.02132

> <CNNscore>
0.8746051788

> <CNNaffinity>
5.7517409325

> <CNN_VS>
5.0305023193

> <CNNaffinity_variance>
0.1381162703

$$$$
[H]c1nc2c(c(N([H])[H])nn2[H])c([H])c1-c1c([H])c([H])c([H])c(C(F)(F)F)c1[H]


 23 25  0  0  0  0  0  0  0  0999 V2000
   -0.3733  -53.6008  -24.0853 C   0  0  0  0  0  0  0  0  0  0  0  0
   -1.0297  -54.7635  -23.6730 C   0  0  0  0  0  0  0  0  0  0  0  0
   -1.3781  -55.0019  -22.3703 N   0  0  0  0  0  0  0  0  0  0  0  0
   -1.0627  -54.0847  -21.4460 C   0  0  0  0  0  0  0  0  0  0  0  0
   -1.2336  -54.0546  -20.1019 N   0  0  0  0  0  0  0  0  0  0  0  0
   -0.7154  -52.9617  -19.6408 N   0  0  0  0  0  0  0  0  0  0  0  0
   -0.1982  -52.2209  -20.6571 C   0  0  0  0  0  0  0  0  0  0  0  0
    0.4321  -50.9686  -20.5896 N   0  0  0  0  0  0  0  0  0  0  0  0
   -0.4129  -52.9314  -21.8131 C   0  0  0  0  0  0  0  0  0  0  0  0
   -0.0618  -52.6614  -23.1303 C   0  0  0  0  0  0  0  0  0  0  0  0
   -1.7677  -54.7868  -19.5715 H   0  0  0  0  0  0  0  0  0  0  0  0
   -0.1985  -50.1057  -20.3933 H   0  0  0  0  0  0  0  0  0  0  0  0
    1.4086  -50.7411  -20.6808 H   0  0  0  0  0  0  0  0  0  0  0  0
   -0.4292  -52.9868  -27.8106 C   0  0  0  0  0  0  0  0  0  0  0  0
    0.8982  -52.8165  -28.0965 C   0  0  0  0  0  0  0  0  0  0  0  0
    1.8190  -52.9693  -27.0452 C   0  0  0  0  0  0  0  0  0  0  0  0
    1.3873  -53.2796  -25.7857 C   0  0  0  0  0  0  0  0  0  0  0  0
    0.0226  -53.4534  -25.4870 C   0  0  0  0  0  0  0  0  0  0  0  0
   -0.8713  -53.3054  -26.5190 C   0  0  0  0  0  0  0  0  0  0  0  0
   -2.5936  -52.3306  -28.2729 F   0  0  0  0  0  0  0  0  0  0  0  0
   -1.4143  -52.7829  -28.9332 C   0  0  0  0  0  0  0  0  0  0  0  0
   -0.9010  -51.6425  -29.5697 F   0  0  0  0  0  0  0  0  0  0  0  0
   -1.5968  -53.8272  -29.7071 F   0  0  0  0  0  0  0  0  0  0  0  0
 20 21  1  0  0  0
 21 22  1  0  0  0
 21 23  1  0  0  0
 21 14  1  0  0  0
 14 15  2  0  0  0
 15 16  1  0  0  0
 16 17  2  0  0  0
 17 18  1  0  0  0
 18 19  2  0  0  0
 18  1  1  0  0  0
  1  2  2  0  0  0
  2  3  1  0  0  0
  3  4  2  0  0  0
  4  5  1  0  0  0
  5  6  1  0  0  0
  6  7  2  0  0  0
  7  8  1  0  0  0
  7  9  1  0  0  0
  9 10  2  0  0  0
 19 14  1  0  0  0
 10  1  1  0  0  0
  9  4  1  0  0  0
  5 11  1  0  0  0
  8 12  1  0  0  0
  8 13  1  0  0  0
M  END
> <minimizedAffinity>
-8.35159

> <CNNscore>
0.7785922885

> <CNNaffinity>
5.7520399094

> <CNN_VS>
4.4784936905

> <CNNaffinity_variance>
0.4500069022

$$$$
[H]c1nc2c(c(N([H])[H])nn2[H])c([H])c1-c1c([H])c([H])c([H])c(C(F)(F)F)c1[H]


 23 25  0  0  0  0  0  0  0  0999 V2000
   -0.3978  -53.1369  -21.0008 C   0  0  0  0  0  0  0  0  0  0  0  0
   -1.0186  -54.3842  -21.1082 C   0  0  0  0  0  0  0  0  0  0  0  0
   -1.2674  -54.9933  -22.3092 N   0  0  0  0  0  0  0  0  0  0  0  0
   -0.9123  -54.3578  -23.4340 C   0  0  0  0  0  0  0  0  0  0  0  0
   -1.0603  -54.6778  -24.7426 N   0  0  0  0  0  0  0  0  0  0  0  0
   -0.5906  -53.7105  -25.4633 N   0  0  0  0  0  0  0  0  0  0  0  0
   -0.1006  -52.7243  -24.6654 C   0  0  0  0  0  0  0  0  0  0  0  0
    0.5093  -51.5186  -25.0451 N   0  0  0  0  0  0  0  0  0  0  0  0
   -0.3042  -53.1278  -23.3681 C   0  0  0  0  0  0  0  0  0  0  0  0
   -0.0290  -52.4967  -22.1610 C   0  0  0  0  0  0  0  0  0  0  0  0
   -1.4359  -55.6014  -25.0720 H   0  0  0  0  0  0  0  0  0  0  0  0
    1.5165  -51.5775  -25.4484 H   0  0  0  0  0  0  0  0  0  0  0  0
    0.1414  -50.5818  -25.0164 H   0  0  0  0  0  0  0  0  0  0  0  0
    0.4451  -50.7338  -18.2131 C   0  0  0  0  0  0  0  0  0  0  0  0
   -0.2684  -51.2453  -17.1634 C   0  0  0  0  0  0  0  0  0  0  0  0
   -0.9856  -52.4354  -17.3775 C   0  0  0  0  0  0  0  0  0  0  0  0
   -0.9593  -53.0499  -18.5984 C   0  0  0  0  0  0  0  0  0  0  0  0
   -0.2284  -52.5257  -19.6814 C   0  0  0  0  0  0  0  0  0  0  0  0
    0.4721  -51.3645  -19.4646 C   0  0  0  0  0  0  0  0  0  0  0  0
    0.4548  -48.8138  -16.9315 F   0  0  0  0  0  0  0  0  0  0  0  0
    1.1799  -49.4369  -17.9885 C   0  0  0  0  0  0  0  0  0  0  0  0
    2.3729  -49.8754  -17.3938 F   0  0  0  0  0  0  0  0  0  0  0  0
    1.3238  -48.6889  -19.0574 F   0  0  0  0  0  0  0  0  0  0  0  0
 20 21  1  0  0  0
 21 22  1  0  0  0
 21 23  1  0  0  0
 21 14  1  0  0  0
 14 15  2  0  0  0
 15 16  1  0  0  0
 16 17  2  0  0  0
 17 18  1  0  0  0
 18 19  2  0  0  0
 18  1  1  0  0  0
  1  2  2  0  0  0
  2  3  1  0  0  0
  3  4  2  0  0  0
  4  5  1  0  0  0
  5  6  1  0  0  0
  6  7  2  0  0  0
  7  8  1  0  0  0
  7  9  1  0  0  0
  9 10  2  0  0  0
 19 14  1  0  0  0
 10  1  1  0  0  0
  9  4  1  0  0  0
  5 11  1  0  0  0
  8 12  1  0  0  0
  8 13  1  0  0  0
M  END
> <minimizedAffinity>
-7.68659

> <CNNscore>
0.7608359456

> <CNNaffinity>
5.5879802704

> <CNN_VS>
4.2515363693

> <CNNaffinity_variance>
0.0906593353

$$$$
[H]c1nc2c(c(N([H])[H])nn2[H])c([H])c1-c1c([H])c([H])c([H])c(C(F)(F)F)c1[H]


 23 25  0  0  0  0  0  0  0  0999 V2000
    1.2976  -52.7459  -24.2851 C   0  0  0  0  0  0  0  0  0  0  0  0
    0.6650  -53.3640  -25.3670 C   0  0  0  0  0  0  0  0  0  0  0  0
   -0.4055  -54.2060  -25.2241 N   0  0  0  0  0  0  0  0  0  0  0  0
   -0.8585  -54.4603  -23.9891 C   0  0  0  0  0  0  0  0  0  0  0  0
   -1.8504  -55.2638  -23.5337 N   0  0  0  0  0  0  0  0  0  0  0  0
   -1.8729  -55.2052  -22.2408 N   0  0  0  0  0  0  0  0  0  0  0  0
   -0.9132  -54.3530  -21.7916 C   0  0  0  0  0  0  0  0  0  0  0  0
   -0.6170  -53.9940  -20.4675 N   0  0  0  0  0  0  0  0  0  0  0  0
   -0.2587  -53.8748  -22.9008 C   0  0  0  0  0  0  0  0  0  0  0  0
    0.8195  -53.0064  -23.0221 C   0  0  0  0  0  0  0  0  0  0  0  0
   -2.5135  -55.7769  -24.1659 H   0  0  0  0  0  0  0  0  0  0  0  0
   -1.3191  -53.3359  -19.9628 H   0  0  0  0  0  0  0  0  0  0  0  0
    0.1593  -54.2730  -19.8901 H   0  0  0  0  0  0  0  0  0  0  0  0
    3.5847  -49.7884  -24.8137 C   0  0  0  0  0  0  0  0  0  0  0  0
    4.8204  -50.3345  -24.5956 C   0  0  0  0  0  0  0  0  0  0  0  0
    4.8890  -51.7134  -24.3304 C   0  0  0  0  0  0  0  0  0  0  0  0
    3.7508  -52.4700  -24.2972 C   0  0  0  0  0  0  0  0  0  0  0  0
    2.4776  -51.9116  -24.5189 C   0  0  0  0  0  0  0  0  0  0  0  0
    2.4180  -50.5646  -24.7800 C   0  0  0  0  0  0  0  0  0  0  0  0
    4.8502  -47.9520  -25.4096 F   0  0  0  0  0  0  0  0  0  0  0  0
    3.5142  -48.3026  -25.0583 C   0  0  0  0  0  0  0  0  0  0  0  0
    2.7987  -48.2379  -26.2638 F   0  0  0  0  0  0  0  0  0  0  0  0
    3.0154  -47.6008  -24.0677 F   0  0  0  0  0  0  0  0  0  0  0  0
 20 21  1  0  0  0
 21 22  1  0  0  0
 21 23  1  0  0  0
 21 14  1  0  0  0
 14 15  2  0  0  0
 15 16  1  0  0  0
 16 17  2  0  0  0
 17 18  1  0  0  0
 18 19  2  0  0  0
 18  1  1  0  0  0
  1  2  2  0  0  0
  2  3  1  0  0  0
  3  4  2  0  0  0
  4  5  1  0  0  0
  5  6  1  0  0  0
  6  7  2  0  0  0
  7  8  1  0  0  0
  7  9  1  0  0  0
  9 10  2  0  0  0
 19 14  1  0  0  0
 10  1  1  0  0  0
  9  4  1  0  0  0
  5 11  1  0  0  0
  8 12  1  0  0  0
  8 13  1  0  0  0
M  END
> <minimizedAffinity>
-7.32497

> <CNNscore>
0.7542960048

> <CNNaffinity>
5.6009263992

> <CNN_VS>
4.2247562408

> <CNNaffinity_variance>
0.4869503379

$$$$
[H]c1nc2c(c(N([H])[H])nn2[H])c([H])c1-c1c([H])c([H])c([H])c(C(F)(F)F)c1[H]


 23 25  0  0  0  0  0  0  0  0999 V2000
    0.5206  -51.9308  -22.2861 C   0  0  0  0  0  0  0  0  0  0  0  0
   -0.0576  -52.6169  -21.2148 C   0  0  0  0  0  0  0  0  0  0  0  0
   -0.7273  -53.8023  -21.3619 N   0  0  0  0  0  0  0  0  0  0  0  0
   -0.8462  -54.3213  -22.5914 C   0  0  0  0  0  0  0  0  0  0  0  0
   -1.4723  -55.4319  -23.0511 N   0  0  0  0  0  0  0  0  0  0  0  0
   -1.3409  -55.4810  -24.3380 N   0  0  0  0  0  0  0  0  0  0  0  0
   -0.6129  -54.4199  -24.7776 C   0  0  0  0  0  0  0  0  0  0  0  0
   -0.2290  -54.1109  -26.0918 N   0  0  0  0  0  0  0  0  0  0  0  0
   -0.2951  -53.6725  -23.6696 C   0  0  0  0  0  0  0  0  0  0  0  0
    0.4008  -52.4763  -23.5430 C   0  0  0  0  0  0  0  0  0  0  0  0
   -1.9178  -56.1452  -22.4225 H   0  0  0  0  0  0  0  0  0  0  0  0
    0.5498  -54.7231  -26.5382 H   0  0  0  0  0  0  0  0  0  0  0  0
   -0.5854  -53.3998  -26.7091 H   0  0  0  0  0  0  0  0  0  0  0  0
    2.5167  -48.7557  -22.7242 C   0  0  0  0  0  0  0  0  0  0  0  0
    2.0623  -47.9824  -21.6906 C   0  0  0  0  0  0  0  0  0  0  0  0
    1.1278  -48.5524  -20.8084 C   0  0  0  0  0  0  0  0  0  0  0  0
    0.6988  -49.8378  -20.9892 C   0  0  0  0  0  0  0  0  0  0  0  0
    1.1621  -50.6358  -22.0525 C   0  0  0  0  0  0  0  0  0  0  0  0
    2.0768  -50.0738  -22.9089 C   0  0  0  0  0  0  0  0  0  0  0  0
    4.7264  -48.7663  -23.3918 F   0  0  0  0  0  0  0  0  0  0  0  0
    3.4884  -48.1259  -23.6892 C   0  0  0  0  0  0  0  0  0  0  0  0
    3.0848  -48.6791  -24.9141 F   0  0  0  0  0  0  0  0  0  0  0  0
    3.5368  -46.8148  -23.6507 F   0  0  0  0  0  0  0  0  0  0  0  0
 20 21  1  0  0  0
 21 22  1  0  0  0
 21 23  1  0  0  0
 21 14  1  0  0  0
 14 15  2  0  0  0
 15 16  1  0  0  0
 16 17  2  0  0  0
 17 18  1  0  0  0
 18 19  2  0  0  0
 18  1  1  0  0  0
  1  2  2  0  0  0
  2  3  1  0  0  0
  3  4  2  0  0  0
  4  5  1  0  0  0
  5  6  1  0  0  0
  6  7  2  0  0  0
  7  8  1  0  0  0
  7  9  1  0  0  0
  9 10  2  0  0  0
 19 14  1  0  0  0
 10  1  1  0  0  0
  9  4  1  0  0  0
  5 11  1  0  0  0
  8 12  1  0  0  0
  8 13  1  0  0  0
M  END
> <minimizedAffinity>
-7.37232

> <CNNscore>
0.7520565987

> <CNNaffinity>
5.6575489044

> <CNN_VS>
4.2547969818

> <CNNaffinity_variance>
0.2517467439

$$$$
[H]c1nc2c(c(N([H])[H])nn2[H])c([H])c1-c1c([H])c([H])c([H])c(C(F)(F)F)c1[H]


 23 25  0  0  0  0  0  0  0  0999 V2000
    0.6873  -52.1097  -24.2670 C   0  0  0  0  0  0  0  0  0  0  0  0
    0.2686  -52.8509  -25.3752 C   0  0  0  0  0  0  0  0  0  0  0  0
   -0.5271  -53.9609  -25.2733 N   0  0  0  0  0  0  0  0  0  0  0  0
   -0.9102  -54.3633  -24.0541 C   0  0  0  0  0  0  0  0  0  0  0  0
   -1.6458  -55.4225  -23.6375 N   0  0  0  0  0  0  0  0  0  0  0  0
   -1.7035  -55.4062  -22.3444 N   0  0  0  0  0  0  0  0  0  0  0  0
   -1.0262  -54.3327  -21.8566 C   0  0  0  0  0  0  0  0  0  0  0  0
   -0.8620  -53.9401  -20.5191 N   0  0  0  0  0  0  0  0  0  0  0  0
   -0.5140  -53.6626  -22.9409 C   0  0  0  0  0  0  0  0  0  0  0  0
    0.2814  -52.5258  -23.0205 C   0  0  0  0  0  0  0  0  0  0  0  0
   -2.1300  -56.0830  -24.2945 H   0  0  0  0  0  0  0  0  0  0  0  0
   -1.7274  -53.5168  -20.0164 H   0  0  0  0  0  0  0  0  0  0  0  0
   -0.0477  -54.0073  -19.9308 H   0  0  0  0  0  0  0  0  0  0  0  0
    3.1499  -49.3112  -23.6661 C   0  0  0  0  0  0  0  0  0  0  0  0
    3.5969  -49.0415  -24.9310 C   0  0  0  0  0  0  0  0  0  0  0  0
    3.0240  -49.7602  -25.9948 C   0  0  0  0  0  0  0  0  0  0  0  0
    2.0526  -50.6923  -25.7575 C   0  0  0  0  0  0  0  0  0  0  0  0
    1.5916  -50.9743  -24.4575 C   0  0  0  0  0  0  0  0  0  0  0  0
    2.1535  -50.2668  -23.4232 C   0  0  0  0  0  0  0  0  0  0  0  0
    3.0148  -47.3793  -22.4098 F   0  0  0  0  0  0  0  0  0  0  0  0
    3.7959  -48.5657  -22.5263 C   0  0  0  0  0  0  0  0  0  0  0  0
    3.4278  -49.3463  -21.4197 F   0  0  0  0  0  0  0  0  0  0  0  0
    5.0837  -48.3519  -22.6628 F   0  0  0  0  0  0  0  0  0  0  0  0
 20 21  1  0  0  0
 21 22  1  0  0  0
 21 23  1  0  0  0
 21 14  1  0  0  0
 14 15  2  0  0  0
 15 16  1  0  0  0
 16 17  2  0  0  0
 17 18  1  0  0  0
 18 19  2  0  0  0
 18  1  1  0  0  0
  1  2  2  0  0  0
  2  3  1  0  0  0
  3  4  2  0  0  0
  4  5  1  0  0  0
  5  6  1  0  0  0
  6  7  2  0  0  0
  7  8  1  0  0  0
  7  9  1  0  0  0
  9 10  2  0  0  0
 19 14  1  0  0  0
 10  1  1  0  0  0
  9  4  1  0  0  0
  5 11  1  0  0  0
  8 12  1  0  0  0
  8 13  1  0  0  0
M  END
> <minimizedAffinity>
-7.15617

> <CNNscore>
0.7460554838

> <CNNaffinity>
5.6563305855

> <CNN_VS>
4.2199363708

> <CNNaffinity_variance>
0.4627470076

$$$$
[H]c1nc2c(c(N([H])[H])nn2[H])c([H])c1-c1c([H])c([H])c([H])c(C(F)(F)F)c1[H]


 23 25  0  0  0  0  0  0  0  0999 V2000
   -0.0442  -52.8849  -22.7362 C   0  0  0  0  0  0  0  0  0  0  0  0
   -0.8543  -53.9877  -22.4528 C   0  0  0  0  0  0  0  0  0  0  0  0
   -1.3215  -54.2673  -21.1963 N   0  0  0  0  0  0  0  0  0  0  0  0
   -0.9745  -53.4543  -20.1895 C   0  0  0  0  0  0  0  0  0  0  0  0
   -1.2390  -53.4911  -18.8608 N   0  0  0  0  0  0  0  0  0  0  0  0
   -0.6375  -52.4976  -18.2891 N   0  0  0  0  0  0  0  0  0  0  0  0
    0.0319  -51.7580  -19.2131 C   0  0  0  0  0  0  0  0  0  0  0  0
    0.7909  -50.5943  -19.0142 N   0  0  0  0  0  0  0  0  0  0  0  0
   -0.1753  -52.3630  -20.4290 C   0  0  0  0  0  0  0  0  0  0  0  0
    0.2991  -52.0513  -21.6975 C   0  0  0  0  0  0  0  0  0  0  0  0
   -1.8886  -54.1890  -18.4208 H   0  0  0  0  0  0  0  0  0  0  0  0
    0.2476  -49.6785  -18.7978 H   0  0  0  0  0  0  0  0  0  0  0  0
    1.7908  -50.4762  -19.0247 H   0  0  0  0  0  0  0  0  0  0  0  0
    0.6107  -53.2582  -26.4361 C   0  0  0  0  0  0  0  0  0  0  0  0
    1.1863  -52.0574  -26.7515 C   0  0  0  0  0  0  0  0  0  0  0  0
    1.4105  -51.1444  -25.7062 C   0  0  0  0  0  0  0  0  0  0  0  0
    1.0616  -51.4612  -24.4228 C   0  0  0  0  0  0  0  0  0  0  0  0
    0.4672  -52.6945  -24.0947 C   0  0  0  0  0  0  0  0  0  0  0  0
    0.2535  -53.5827  -25.1200 C   0  0  0  0  0  0  0  0  0  0  0  0
    0.0010  -55.4343  -26.9068 F   0  0  0  0  0  0  0  0  0  0  0  0
    0.3369  -54.2167  -27.5669 C   0  0  0  0  0  0  0  0  0  0  0  0
   -0.8811  -53.7351  -28.0706 F   0  0  0  0  0  0  0  0  0  0  0  0
    1.3058  -54.3292  -28.4451 F   0  0  0  0  0  0  0  0  0  0  0  0
 20 21  1  0  0  0
 21 22  1  0  0  0
 21 23  1  0  0  0
 21 14  1  0  0  0
 14 15  2  0  0  0
 15 16  1  0  0  0
 16 17  2  0  0  0
 17 18  1  0  0  0
 18 19  2  0  0  0
 18  1  1  0  0  0
  1  2  2  0  0  0
  2  3  1  0  0  0
  3  4  2  0  0  0
  4  5  1  0  0  0
  5  6  1  0  0  0
  6  7  2  0  0  0
  7  8  1  0  0  0
  7  9  1  0  0  0
  9 10  2  0  0  0
 19 14  1  0  0  0
 10  1  1  0  0  0
  9  4  1  0  0  0
  5 11  1  0  0  0
  8 12  1  0  0  0
  8 13  1  0  0  0
M  END
> <minimizedAffinity>
-8.24756

> <CNNscore>
0.6976314187

> <CNNaffinity>
5.4196462631

> <CNN_VS>
3.7809154987

> <CNNaffinity_variance>
0.5310701728

$$$$
[H]O[C@@]1([H])[C@]([H])(OC([H])([H])[H])[C@@]([H])(C([H])([H])OP(=O)(O[H])O[H])O[C@@]1([H])n1c([H])c([H])c(=O)n([H])c1=O


 26 27  0  0  0  0  0  0  0  0999 V2000
    0.8385  -52.3181  -27.3558 C   0  0  0  0  0  0  0  0  0  0  0  0
    2.0382  -52.8893  -26.6800 C   0  0  0  0  0  0  0  0  0  0  0  0
    1.6520  -53.7430  -25.6888 O   0  0  0  0  0  0  0  0  0  0  0  0
    0.3054  -53.9763  -25.7668 C   0  0  0  0  0  0  0  0  0  0  0  0
   -0.3214  -52.9102  -26.6046 C   0  0  0  0  0  0  0  0  0  0  0  0
   -1.0109  -51.9612  -25.8789 O   0  0  0  0  0  0  0  0  0  0  0  0
   -1.9916  -52.0961  -25.9004 H   0  0  0  0  0  0  0  0  0  0  0  0
   -0.2260  -54.0765  -24.4383 N   0  0  0  0  0  0  0  0  0  0  0  0
   -0.0307  -53.0812  -23.5505 C   0  0  0  0  0  0  0  0  0  0  0  0
   -0.5442  -53.1874  -22.2837 C   0  0  0  0  0  0  0  0  0  0  0  0
   -1.2609  -54.3071  -21.9087 C   0  0  0  0  0  0  0  0  0  0  0  0
   -1.7310  -54.3914  -20.7303 O   0  0  0  0  0  0  0  0  0  0  0  0
   -1.4262  -55.2698  -22.8324 N   0  0  0  0  0  0  0  0  0  0  0  0
   -0.9239  -55.1684  -24.0755 C   0  0  0  0  0  0  0  0  0  0  0  0
   -1.1263  -56.1303  -24.8957 O   0  0  0  0  0  0  0  0  0  0  0  0
   -1.9676  -56.1154  -22.5493 H   0  0  0  0  0  0  0  0  0  0  0  0
   -0.4013  -52.7612  -29.2537 C   0  0  0  0  0  0  0  0  0  0  0  0
    0.8621  -52.6459  -28.6857 O   0  0  0  0  0  0  0  0  0  0  0  0
    2.8988  -51.8014  -26.0338 C   0  0  0  0  0  0  0  0  0  0  0  0
    2.3476  -50.5417  -26.2736 O   0  0  0  0  0  0  0  0  0  0  0  0
    3.5833  -49.4202  -26.5394 P   0  0  0  0  0  0  0  0  0  0  0  0
    4.1016  -49.4178  -28.1376 O   0  0  0  0  0  0  0  0  0  0  0  0
    4.9334  -49.8160  -25.5661 O   0  0  0  0  0  0  0  0  0  0  0  0
    3.1266  -48.0316  -26.1270 O   0  0  0  0  0  0  0  0  0  0  0  0
    4.6451  -50.2057  -28.3445 H   0  0  0  0  0  0  0  0  0  0  0  0
    4.6318  -49.8222  -24.6207 H   0  0  0  0  0  0  0  0  0  0  0  0
 17 18  1  0  0  0
 18  1  1  0  0  0
  1  2  1  0  0  0
  2 19  1  0  0  0
 19 20  1  0  0  0
 20 21  1  0  0  0
 21 22  1  0  0  0
 21 23  1  0  0  0
 21 24  2  0  0  0
  2  3  1  0  0  0
  3  4  1  0  0  0
  4  5  1  0  0  0
  5  6  1  0  0  0
  4  8  1  0  0  0
  8  9  1  0  0  0
  9 10  2  0  0  0
 10 11  1  0  0  0
 11 12  2  0  0  0
 11 13  1  0  0  0
 13 14  1  0  0  0
 14 15  2  0  0  0
  5  1  1  0  0  0
 14  8  1  0  0  0
 22 25  1  0  0  0
 23 26  1  0  0  0
  6  7  1  0  0  0
 13 16  1  0  0  0
M  END
> <minimizedAffinity>
-7.48973

> <CNNscore>
0.7525320649

> <CNNaffinity>
4.9608716965

> <CNN_VS>
3.7332150936

> <CNNaffinity_variance>
0.2011041641

$$$$
[H]O[C@@]1([H])[C@]([H])(OC([H])([H])[H])[C@@]([H])(C([H])([H])OP(=O)(O[H])O[H])O[C@@]1([H])n1c([H])c([H])c(=O)n([H])c1=O


 26 27  0  0  0  0  0  0  0  0999 V2000
    3.0525  -49.9794  -19.9308 C   0  0  0  0  0  0  0  0  0  0  0  0
    2.3019  -49.3161  -21.0350 C   0  0  0  0  0  0  0  0  0  0  0  0
    1.0818  -49.9061  -21.1887 O   0  0  0  0  0  0  0  0  0  0  0  0
    0.8409  -50.7662  -20.1514 C   0  0  0  0  0  0  0  0  0  0  0  0
    2.1346  -51.0784  -19.4729 C   0  0  0  0  0  0  0  0  0  0  0  0
    2.6332  -52.3302  -19.7678 O   0  0  0  0  0  0  0  0  0  0  0  0
    2.4737  -52.9892  -19.0462 H   0  0  0  0  0  0  0  0  0  0  0  0
    0.1414  -51.9137  -20.6526 N   0  0  0  0  0  0  0  0  0  0  0  0
    0.0658  -52.1385  -21.9795 C   0  0  0  0  0  0  0  0  0  0  0  0
   -0.6047  -53.2391  -22.4473 C   0  0  0  0  0  0  0  0  0  0  0  0
   -1.2043  -54.1209  -21.5693 C   0  0  0  0  0  0  0  0  0  0  0  0
   -1.8226  -55.1374  -22.0178 O   0  0  0  0  0  0  0  0  0  0  0  0
   -1.0989  -53.8498  -20.2568 N   0  0  0  0  0  0  0  0  0  0  0  0
   -0.4419  -52.7712  -19.7951 C   0  0  0  0  0  0  0  0  0  0  0  0
   -0.3878  -52.5851  -18.5297 O   0  0  0  0  0  0  0  0  0  0  0  0
   -1.5516  -54.5158  -19.5936 H   0  0  0  0  0  0  0  0  0  0  0  0
    2.8451  -47.7901  -19.2240 C   0  0  0  0  0  0  0  0  0  0  0  0
    3.3439  -49.0600  -18.9580 O   0  0  0  0  0  0  0  0  0  0  0  0
    3.0360  -49.4340  -22.3726 C   0  0  0  0  0  0  0  0  0  0  0  0
    3.1768  -50.7755  -22.7312 O   0  0  0  0  0  0  0  0  0  0  0  0
    3.1422  -50.9221  -24.4143 P   0  0  0  0  0  0  0  0  0  0  0  0
    4.5490  -51.6147  -25.0175 O   0  0  0  0  0  0  0  0  0  0  0  0
    2.9944  -49.3707  -25.1201 O   0  0  0  0  0  0  0  0  0  0  0  0
    1.9276  -51.7264  -24.8441 O   0  0  0  0  0  0  0  0  0  0  0  0
    5.3014  -50.9882  -24.9943 H   0  0  0  0  0  0  0  0  0  0  0  0
    2.1662  -48.9556  -24.7643 H   0  0  0  0  0  0  0  0  0  0  0  0
 17 18  1  0  0  0
 18  1  1  0  0  0
  1  2  1  0  0  0
  2 19  1  0  0  0
 19 20  1  0  0  0
 20 21  1  0  0  0
 21 22  1  0  0  0
 21 23  1  0  0  0
 21 24  2  0  0  0
  2  3  1  0  0  0
  3  4  1  0  0  0
  4  5  1  0  0  0
  5  6  1  0  0  0
  4  8  1  0  0  0
  8  9  1  0  0  0
  9 10  2  0  0  0
 10 11  1  0  0  0
 11 12  2  0  0  0
 11 13  1  0  0  0
 13 14  1  0  0  0
 14 15  2  0  0  0
  5  1  1  0  0  0
 14  8  1  0  0  0
 22 25  1  0  0  0
 23 26  1  0  0  0
  6  7  1  0  0  0
 13 16  1  0  0  0
M  END
> <minimizedAffinity>
-5.72396

> <CNNscore>
0.7234697938

> <CNNaffinity>
4.4582872391

> <CNN_VS>
3.2254362106

> <CNNaffinity_variance>
0.2365178764

$$$$
[H]O[C@@]1([H])[C@]([H])(OC([H])([H])[H])[C@@]([H])(C([H])([H])OP(=O)(O[H])O[H])O[C@@]1([H])n1c([H])c([H])c(=O)n([H])c1=O


 26 27  0  0  0  0  0  0  0  0999 V2000
    3.9429  -49.9189  -21.9306 C   0  0  0  0  0  0  0  0  0  0  0  0
    3.1932  -49.7623  -23.2096 C   0  0  0  0  0  0  0  0  0  0  0  0
    1.8973  -50.1525  -23.0406 O   0  0  0  0  0  0  0  0  0  0  0  0
    1.6361  -50.3547  -21.7121 C   0  0  0  0  0  0  0  0  0  0  0  0
    2.9314  -50.5000  -20.9823 C   0  0  0  0  0  0  0  0  0  0  0  0
    3.2331  -51.7994  -20.6311 O   0  0  0  0  0  0  0  0  0  0  0  0
    3.0514  -51.9937  -19.6774 H   0  0  0  0  0  0  0  0  0  0  0  0
    0.7505  -51.4750  -21.5784 N   0  0  0  0  0  0  0  0  0  0  0  0
    0.5272  -52.2945  -22.6250 C   0  0  0  0  0  0  0  0  0  0  0  0
   -0.3206  -53.3629  -22.4854 C   0  0  0  0  0  0  0  0  0  0  0  0
   -0.9490  -53.6070  -21.2797 C   0  0  0  0  0  0  0  0  0  0  0  0
   -1.7326  -54.6018  -21.1653 O   0  0  0  0  0  0  0  0  0  0  0  0
   -0.6915  -52.7591  -20.2688 N   0  0  0  0  0  0  0  0  0  0  0  0
    0.1396  -51.7106  -20.4027 C   0  0  0  0  0  0  0  0  0  0  0  0
    0.3311  -50.9506  -19.3905 O   0  0  0  0  0  0  0  0  0  0  0  0
   -1.1660  -52.9435  -19.3582 H   0  0  0  0  0  0  0  0  0  0  0  0
    4.2472  -47.6947  -22.4746 C   0  0  0  0  0  0  0  0  0  0  0  0
    4.4365  -48.7032  -21.5369 O   0  0  0  0  0  0  0  0  0  0  0  0
    3.7862  -50.6251  -24.3258 C   0  0  0  0  0  0  0  0  0  0  0  0
    3.1419  -50.3617  -25.5357 O   0  0  0  0  0  0  0  0  0  0  0  0
    3.9097  -49.0785  -26.3226 P   0  0  0  0  0  0  0  0  0  0  0  0
    3.0673  -47.6353  -26.1484 O   0  0  0  0  0  0  0  0  0  0  0  0
    4.0084  -49.4123  -27.9976 O   0  0  0  0  0  0  0  0  0  0  0  0
    5.3322  -48.9282  -25.8120 O   0  0  0  0  0  0  0  0  0  0  0  0
    2.2610  -47.6159  -26.7038 H   0  0  0  0  0  0  0  0  0  0  0  0
    4.5025  -50.2660  -28.1061 H   0  0  0  0  0  0  0  0  0  0  0  0
 17 18  1  0  0  0
 18  1  1  0  0  0
  1  2  1  0  0  0
  2 19  1  0  0  0
 19 20  1  0  0  0
 20 21  1  0  0  0
 21 22  1  0  0  0
 21 23  1  0  0  0
 21 24  2  0  0  0
  2  3  1  0  0  0
  3  4  1  0  0  0
  4  5  1  0  0  0
  5  6  1  0  0  0
  4  8  1  0  0  0
  8  9  1  0  0  0
  9 10  2  0  0  0
 10 11  1  0  0  0
 11 12  2  0  0  0
 11 13  1  0  0  0
 13 14  1  0  0  0
 14 15  2  0  0  0
  5  1  1  0  0  0
 14  8  1  0  0  0
 22 25  1  0  0  0
 23 26  1  0  0  0
  6  7  1  0  0  0
 13 16  1  0  0  0
M  END
> <minimizedAffinity>
-5.28214

> <CNNscore>
0.7032554746

> <CNNaffinity>
4.4644885063

> <CNN_VS>
3.1396760941

> <CNNaffinity_variance>
0.2437503338

$$$$
[H]O[C@@]1([H])[C@]([H])(OC([H])([H])[H])[C@@]([H])(C([H])([H])OP(=O)(O[H])O[H])O[C@@]1([H])n1c([H])c([H])c(=O)n([H])c1=O


 26 27  0  0  0  0  0  0  0  0999 V2000
    3.2530  -50.1960  -20.2523 C   0  0  0  0  0  0  0  0  0  0  0  0
    2.8009  -49.7315  -21.5948 C   0  0  0  0  0  0  0  0  0  0  0  0
    1.5592  -50.2271  -21.8651 O   0  0  0  0  0  0  0  0  0  0  0  0
    1.0296  -50.8070  -20.7439 C   0  0  0  0  0  0  0  0  0  0  0  0
    2.1323  -51.0759  -19.7728 C   0  0  0  0  0  0  0  0  0  0  0  0
    2.5050  -52.4020  -19.7024 O   0  0  0  0  0  0  0  0  0  0  0  0
    2.1365  -52.8651  -18.9086 H   0  0  0  0  0  0  0  0  0  0  0  0
    0.2829  -51.9689  -21.1308 N   0  0  0  0  0  0  0  0  0  0  0  0
   -0.3443  -52.7156  -20.2003 C   0  0  0  0  0  0  0  0  0  0  0  0
   -1.0560  -53.8237  -20.5817 C   0  0  0  0  0  0  0  0  0  0  0  0
   -1.1360  -54.1820  -21.9133 C   0  0  0  0  0  0  0  0  0  0  0  0
   -1.7997  -55.2123  -22.2520 O   0  0  0  0  0  0  0  0  0  0  0  0
   -0.4921  -53.4031  -22.8000 N   0  0  0  0  0  0  0  0  0  0  0  0
    0.2065  -52.3158  -22.4288 C   0  0  0  0  0  0  0  0  0  0  0  0
    0.7911  -51.6272  -23.3360 O   0  0  0  0  0  0  0  0  0  0  0  0
   -0.5525  -53.6736  -23.8057 H   0  0  0  0  0  0  0  0  0  0  0  0
    4.7874  -49.0569  -18.9547 C   0  0  0  0  0  0  0  0  0  0  0  0
    3.4891  -49.1124  -19.4481 O   0  0  0  0  0  0  0  0  0  0  0  0
    3.7349  -50.2128  -22.7074 C   0  0  0  0  0  0  0  0  0  0  0  0
    3.3654  -49.6468  -23.9286 O   0  0  0  0  0  0  0  0  0  0  0  0
    4.6622  -48.7711  -24.5665 P   0  0  0  0  0  0  0  0  0  0  0  0
    5.1818  -49.3930  -26.0382 O   0  0  0  0  0  0  0  0  0  0  0  0
    5.9867  -48.8430  -23.4862 O   0  0  0  0  0  0  0  0  0  0  0  0
    4.2831  -47.3075  -24.7124 O   0  0  0  0  0  0  0  0  0  0  0  0
    5.6807  -50.2279  -25.9240 H   0  0  0  0  0  0  0  0  0  0  0  0
    5.6840  -48.4797  -22.6138 H   0  0  0  0  0  0  0  0  0  0  0  0
 17 18  1  0  0  0
 18  1  1  0  0  0
  1  2  1  0  0  0
  2 19  1  0  0  0
 19 20  1  0  0  0
 20 21  1  0  0  0
 21 22  1  0  0  0
 21 23  1  0  0  0
 21 24  2  0  0  0
  2  3  1  0  0  0
  3  4  1  0  0  0
  4  5  1  0  0  0
  5  6  1  0  0  0
  4  8  1  0  0  0
  8  9  1  0  0  0
  9 10  2  0  0  0
 10 11  1  0  0  0
 11 12  2  0  0  0
 11 13  1  0  0  0
 13 14  1  0  0  0
 14 15  2  0  0  0
  5  1  1  0  0  0
 14  8  1  0  0  0
 22 25  1  0  0  0
 23 26  1  0  0  0
  6  7  1  0  0  0
 13 16  1  0  0  0
M  END
> <minimizedAffinity>
-5.30993

> <CNNscore>
0.6879576445

> <CNNaffinity>
4.7200880051

> <CNN_VS>
3.2472205162

> <CNNaffinity_variance>
0.3305190802

$$$$
[H]O[C@@]1([H])[C@]([H])(OC([H])([H])[H])[C@@]([H])(C([H])([H])OP(=O)(O[H])O[H])O[C@@]1([H])n1c([H])c([H])c(=O)n([H])c1=O


 26 27  0  0  0  0  0  0  0  0999 V2000
    0.3593  -52.4698  -24.5659 C   0  0  0  0  0  0  0  0  0  0  0  0
    1.7470  -52.3023  -24.0477 C   0  0  0  0  0  0  0  0  0  0  0  0
    1.8053  -52.6863  -22.7402 O   0  0  0  0  0  0  0  0  0  0  0  0
    0.6390  -53.3054  -22.3791 C   0  0  0  0  0  0  0  0  0  0  0  0
   -0.4181  -52.9636  -23.3777 C   0  0  0  0  0  0  0  0  0  0  0  0
   -1.3313  -52.0322  -22.9292 O   0  0  0  0  0  0  0  0  0  0  0  0
   -2.1901  -52.4375  -22.6486 H   0  0  0  0  0  0  0  0  0  0  0  0
    0.3196  -52.9423  -21.0287 N   0  0  0  0  0  0  0  0  0  0  0  0
    0.9820  -51.9391  -20.4190 C   0  0  0  0  0  0  0  0  0  0  0  0
    0.6676  -51.6001  -19.1283 C   0  0  0  0  0  0  0  0  0  0  0  0
   -0.3235  -52.2787  -18.4463 C   0  0  0  0  0  0  0  0  0  0  0  0
   -0.6041  -51.9531  -17.2496 O   0  0  0  0  0  0  0  0  0  0  0  0
   -0.9525  -53.2704  -19.1006 N   0  0  0  0  0  0  0  0  0  0  0  0
   -0.6464  -53.6050  -20.3665 C   0  0  0  0  0  0  0  0  0  0  0  0
   -1.2933  -54.5622  -20.9180 O   0  0  0  0  0  0  0  0  0  0  0  0
   -1.7011  -53.7829  -18.5856 H   0  0  0  0  0  0  0  0  0  0  0  0
   -0.4623  -52.9542  -26.6697 C   0  0  0  0  0  0  0  0  0  0  0  0
    0.3670  -53.3408  -25.6233 O   0  0  0  0  0  0  0  0  0  0  0  0
    2.2069  -50.8442  -24.1145 C   0  0  0  0  0  0  0  0  0  0  0  0
    1.8806  -50.2897  -25.3533 O   0  0  0  0  0  0  0  0  0  0  0  0
    3.2651  -50.1942  -26.3173 P   0  0  0  0  0  0  0  0  0  0  0  0
    3.2258  -51.2900  -27.5902 O   0  0  0  0  0  0  0  0  0  0  0  0
    4.6448  -50.5581  -25.3736 O   0  0  0  0  0  0  0  0  0  0  0  0
    3.4414  -48.7791  -26.8400 O   0  0  0  0  0  0  0  0  0  0  0  0
    3.3876  -52.2066  -27.2858 H   0  0  0  0  0  0  0  0  0  0  0  0
    4.6710  -49.9154  -24.6179 H   0  0  0  0  0  0  0  0  0  0  0  0
 17 18  1  0  0  0
 18  1  1  0  0  0
  1  2  1  0  0  0
  2 19  1  0  0  0
 19 20  1  0  0  0
 20 21  1  0  0  0
 21 22  1  0  0  0
 21 23  1  0  0  0
 21 24  2  0  0  0
  2  3  1  0  0  0
  3  4  1  0  0  0
  4  5  1  0  0  0
  5  6  1  0  0  0
  4  8  1  0  0  0
  8  9  1  0  0  0
  9 10  2  0  0  0
 10 11  1  0  0  0
 11 12  2  0  0  0
 11 13  1  0  0  0
 13 14  1  0  0  0
 14 15  2  0  0  0
  5  1  1  0  0  0
 14  8  1  0  0  0
 22 25  1  0  0  0
 23 26  1  0  0  0
  6  7  1  0  0  0
 13 16  1  0  0  0
M  END
> <minimizedAffinity>
-5.71009

> <CNNscore>
0.6172225475

> <CNNaffinity>
4.5972838402

> <CNN_VS>
2.8375473022

> <CNNaffinity_variance>
0.2973074317

$$$$
[H]O[C@@]1([H])[C@]([H])(OC([H])([H])[H])[C@@]([H])(C([H])([H])OP(=O)(O[H])O[H])O[C@@]1([H])n1c([H])c([H])c(=O)n([H])c1=O


 26 27  0  0  0  0  0  0  0  0999 V2000
    0.0569  -52.8126  -27.4440 C   0  0  0  0  0  0  0  0  0  0  0  0
    1.2266  -53.6994  -27.1839 C   0  0  0  0  0  0  0  0  0  0  0  0
    1.1993  -54.1396  -25.8932 O   0  0  0  0  0  0  0  0  0  0  0  0
    0.0047  -53.8133  -25.3098 C   0  0  0  0  0  0  0  0  0  0  0  0
   -0.6516  -52.7435  -26.1199 C   0  0  0  0  0  0  0  0  0  0  0  0
   -0.5768  -51.4877  -25.5541 O   0  0  0  0  0  0  0  0  0  0  0  0
   -1.4190  -51.2126  -25.1120 H   0  0  0  0  0  0  0  0  0  0  0  0
    0.2384  -53.4609  -23.9392 N   0  0  0  0  0  0  0  0  0  0  0  0
    1.2152  -52.5895  -23.6177 C   0  0  0  0  0  0  0  0  0  0  0  0
    1.4289  -52.2593  -22.3043 C   0  0  0  0  0  0  0  0  0  0  0  0
    0.6508  -52.8128  -21.3062 C   0  0  0  0  0  0  0  0  0  0  0  0
    0.8608  -52.4970  -20.0925 O   0  0  0  0  0  0  0  0  0  0  0  0
   -0.3091  -53.6759  -21.6815 N   0  0  0  0  0  0  0  0  0  0  0  0
   -0.5210  -54.0016  -22.9688 C   0  0  0  0  0  0  0  0  0  0  0  0
   -1.4562  -54.8321  -23.2420 O   0  0  0  0  0  0  0  0  0  0  0  0
   -0.8968  -54.0939  -20.9277 H   0  0  0  0  0  0  0  0  0  0  0  0
   -0.4911  -52.7397  -29.6868 C   0  0  0  0  0  0  0  0  0  0  0  0
   -0.7044  -53.3421  -28.4523 O   0  0  0  0  0  0  0  0  0  0  0  0
    2.5536  -52.9644  -27.3859 C   0  0  0  0  0  0  0  0  0  0  0  0
    2.3242  -51.6100  -27.6337 O   0  0  0  0  0  0  0  0  0  0  0  0
    3.1327  -50.6751  -26.4814 P   0  0  0  0  0  0  0  0  0  0  0  0
    4.1197  -49.5142  -27.1891 O   0  0  0  0  0  0  0  0  0  0  0  0
    4.1337  -51.6829  -25.5280 O   0  0  0  0  0  0  0  0  0  0  0  0
    2.1327  -50.0218  -25.5433 O   0  0  0  0  0  0  0  0  0  0  0  0
    4.9293  -49.9101  -27.5722 H   0  0  0  0  0  0  0  0  0  0  0  0
    3.5558  -52.3730  -25.1101 H   0  0  0  0  0  0  0  0  0  0  0  0
 17 18  1  0  0  0
 18  1  1  0  0  0
  1  2  1  0  0  0
  2 19  1  0  0  0
 19 20  1  0  0  0
 20 21  1  0  0  0
 21 22  1  0  0  0
 21 23  1  0  0  0
 21 24  2  0  0  0
  2  3  1  0  0  0
  3  4  1  0  0  0
  4  5  1  0  0  0
  5  6  1  0  0  0
  4  8  1  0  0  0
  8  9  1  0  0  0
  9 10  2  0  0  0
 10 11  1  0  0  0
 11 12  2  0  0  0
 11 13  1  0  0  0
 13 14  1  0  0  0
 14 15  2  0  0  0
  5  1  1  0  0  0
 14  8  1  0  0  0
 22 25  1  0  0  0
 23 26  1  0  0  0
  6  7  1  0  0  0
 13 16  1  0  0  0
M  END
> <minimizedAffinity>
-6.35691

> <CNNscore>
0.5922104120

> <CNNaffinity>
4.6876978874

> <CNN_VS>
2.7761034966

> <CNNaffinity_variance>
0.1957987249

$$$$
[H]O[C@@]1([H])[C@]([H])(OC([H])([H])[H])[C@@]([H])(C([H])([H])OP(=O)(O[H])O[H])O[C@@]1([H])n1c([H])c([H])c(=O)n([H])c1=O


 26 27  0  0  0  0  0  0  0  0999 V2000
    3.4815  -50.7012  -24.2131 C   0  0  0  0  0  0  0  0  0  0  0  0
    2.6830  -51.3260  -25.3060 C   0  0  0  0  0  0  0  0  0  0  0  0
    1.4259  -51.6109  -24.8599 O   0  0  0  0  0  0  0  0  0  0  0  0
    1.2220  -51.0412  -23.6320 C   0  0  0  0  0  0  0  0  0  0  0  0
    2.5464  -50.6919  -23.0360 C   0  0  0  0  0  0  0  0  0  0  0  0
    2.9559  -51.5526  -22.0389 O   0  0  0  0  0  0  0  0  0  0  0  0
    2.8189  -51.1839  -21.1302 H   0  0  0  0  0  0  0  0  0  0  0  0
    0.4278  -51.9299  -22.8340 N   0  0  0  0  0  0  0  0  0  0  0  0
    0.2763  -51.7069  -21.5133 C   0  0  0  0  0  0  0  0  0  0  0  0
   -0.4859  -52.5626  -20.7605 C   0  0  0  0  0  0  0  0  0  0  0  0
   -1.1009  -53.6528  -21.3447 C   0  0  0  0  0  0  0  0  0  0  0  0
   -1.8047  -54.4376  -20.6338 O   0  0  0  0  0  0  0  0  0  0  0  0
   -0.9172  -53.8288  -22.6647 N   0  0  0  0  0  0  0  0  0  0  0  0
   -0.1702  -52.9913  -23.4055 C   0  0  0  0  0  0  0  0  0  0  0  0
   -0.0455  -53.2300  -24.6570 O   0  0  0  0  0  0  0  0  0  0  0  0
   -1.3817  -54.6522  -23.1060 H   0  0  0  0  0  0  0  0  0  0  0  0
    3.9601  -49.2944  -25.9816 C   0  0  0  0  0  0  0  0  0  0  0  0
    3.8940  -49.4542  -24.6024 O   0  0  0  0  0  0  0  0  0  0  0  0
    3.3045  -52.6399  -25.7847 C   0  0  0  0  0  0  0  0  0  0  0  0
    2.3287  -53.4565  -26.3586 O   0  0  0  0  0  0  0  0  0  0  0  0
    2.2029  -53.1199  -28.0097 P   0  0  0  0  0  0  0  0  0  0  0  0
    2.3750  -54.5007  -28.9512 O   0  0  0  0  0  0  0  0  0  0  0  0
    3.4422  -52.0329  -28.4674 O   0  0  0  0  0  0  0  0  0  0  0  0
    0.8783  -52.4376  -28.3046 O   0  0  0  0  0  0  0  0  0  0  0  0
    3.3062  -54.8014  -28.9884 H   0  0  0  0  0  0  0  0  0  0  0  0
    3.3471  -51.2163  -27.9115 H   0  0  0  0  0  0  0  0  0  0  0  0
 17 18  1  0  0  0
 18  1  1  0  0  0
  1  2  1  0  0  0
  2 19  1  0  0  0
 19 20  1  0  0  0
 20 21  1  0  0  0
 21 22  1  0  0  0
 21 23  1  0  0  0
 21 24  2  0  0  0
  2  3  1  0  0  0
  3  4  1  0  0  0
  4  5  1  0  0  0
  5  6  1  0  0  0
  4  8  1  0  0  0
  8  9  1  0  0  0
  9 10  2  0  0  0
 10 11  1  0  0  0
 11 12  2  0  0  0
 11 13  1  0  0  0
 13 14  1  0  0  0
 14 15  2  0  0  0
  5  1  1  0  0  0
 14  8  1  0  0  0
 22 25  1  0  0  0
 23 26  1  0  0  0
  6  7  1  0  0  0
 13 16  1  0  0  0
M  END
> <minimizedAffinity>
-6.97737

> <CNNscore>
0.5841381550

> <CNNaffinity>
4.8233428001

> <CNN_VS>
2.8174984455

> <CNNaffinity_variance>
0.3332196772

$$$$
[H]O[C@@]1([H])[C@]([H])(OC([H])([H])[H])[C@@]([H])(C([H])([H])OP(=O)(O[H])O[H])O[C@@]1([H])n1c([H])c([H])c(=O)n([H])c1=O


 26 27  0  0  0  0  0  0  0  0999 V2000
    0.8360  -52.2701  -27.3199 C   0  0  0  0  0  0  0  0  0  0  0  0
    2.0542  -52.7561  -26.6112 C   0  0  0  0  0  0  0  0  0  0  0  0
    1.7011  -53.6239  -25.6200 O   0  0  0  0  0  0  0  0  0  0  0  0
    0.3746  -53.9448  -25.7257 C   0  0  0  0  0  0  0  0  0  0  0  0
   -0.3002  -52.9293  -26.5888 C   0  0  0  0  0  0  0  0  0  0  0  0
   -1.0663  -52.0204  -25.8889 O   0  0  0  0  0  0  0  0  0  0  0  0
   -2.0355  -52.2188  -25.9311 H   0  0  0  0  0  0  0  0  0  0  0  0
   -0.1799  -54.0671  -24.4086 N   0  0  0  0  0  0  0  0  0  0  0  0
    0.0236  -53.0998  -23.4922 C   0  0  0  0  0  0  0  0  0  0  0  0
   -0.5120  -53.2269  -22.2365 C   0  0  0  0  0  0  0  0  0  0  0  0
   -1.2596  -54.3392  -21.9019 C   0  0  0  0  0  0  0  0  0  0  0  0
   -1.7500  -54.4431  -20.7334 O   0  0  0  0  0  0  0  0  0  0  0  0
   -1.4319  -55.2737  -22.8529 N   0  0  0  0  0  0  0  0  0  0  0  0
   -0.9078  -55.1517  -24.0852 C   0  0  0  0  0  0  0  0  0  0  0  0
   -1.1188  -56.0872  -24.9332 O   0  0  0  0  0  0  0  0  0  0  0  0
   -1.9965  -56.1137  -22.6003 H   0  0  0  0  0  0  0  0  0  0  0  0
   -0.3288  -52.7942  -29.2445 C   0  0  0  0  0  0  0  0  0  0  0  0
    0.9116  -52.6078  -28.6454 O   0  0  0  0  0  0  0  0  0  0  0  0
    2.8275  -51.6088  -25.9574 C   0  0  0  0  0  0  0  0  0  0  0  0
    1.9525  -50.7617  -25.2755 O   0  0  0  0  0  0  0  0  0  0  0  0
    2.6445  -50.2891  -23.8081 P   0  0  0  0  0  0  0  0  0  0  0  0
    1.4846  -49.9842  -22.6315 O   0  0  0  0  0  0  0  0  0  0  0  0
    3.5334  -48.8451  -24.0342 O   0  0  0  0  0  0  0  0  0  0  0  0
    3.6235  -51.3462  -23.3275 O   0  0  0  0  0  0  0  0  0  0  0  0
    1.0187  -49.1378  -22.7913 H   0  0  0  0  0  0  0  0  0  0  0  0
    4.2182  -49.0188  -24.7312 H   0  0  0  0  0  0  0  0  0  0  0  0
 17 18  1  0  0  0
 18  1  1  0  0  0
  1  2  1  0  0  0
  2 19  1  0  0  0
 19 20  1  0  0  0
 20 21  1  0  0  0
 21 22  1  0  0  0
 21 23  1  0  0  0
 21 24  2  0  0  0
  2  3  1  0  0  0
  3  4  1  0  0  0
  4  5  1  0  0  0
  5  6  1  0  0  0
  4  8  1  0  0  0
  8  9  1  0  0  0
  9 10  2  0  0  0
 10 11  1  0  0  0
 11 12  2  0  0  0
 11 13  1  0  0  0
 13 14  1  0  0  0
 14 15  2  0  0  0
  5  1  1  0  0  0
 14  8  1  0  0  0
 22 25  1  0  0  0
 23 26  1  0  0  0
  6  7  1  0  0  0
 13 16  1  0  0  0
M  END
> <minimizedAffinity>
-7.00749

> <CNNscore>
0.5749314427

> <CNNaffinity>
4.5671806335

> <CNN_VS>
2.6258158684

> <CNNaffinity_variance>
0.3026031852

$$$$
[H]O[C@@]1([H])[C@]([H])(OC([H])([H])[H])[C@@]([H])(C([H])([H])OP(=O)(O[H])O[H])O[C@@]1([H])n1c([H])c([H])c(=O)n([H])c1=O


 26 27  0  0  0  0  0  0  0  0999 V2000
    3.6505  -50.7702  -24.0552 C   0  0  0  0  0  0  0  0  0  0  0  0
    2.8160  -51.2450  -25.1956 C   0  0  0  0  0  0  0  0  0  0  0  0
    1.5449  -51.4962  -24.7696 O   0  0  0  0  0  0  0  0  0  0  0  0
    1.3755  -51.0303  -23.4936 C   0  0  0  0  0  0  0  0  0  0  0  0
    2.7186  -50.8143  -22.8764 C   0  0  0  0  0  0  0  0  0  0  0  0
    3.0779  -51.7849  -21.9645 O   0  0  0  0  0  0  0  0  0  0  0  0
    2.9634  -51.4935  -21.0251 H   0  0  0  0  0  0  0  0  0  0  0  0
    0.5315  -51.9407  -22.7752 N   0  0  0  0  0  0  0  0  0  0  0  0
    0.2745  -53.1668  -23.2726 C   0  0  0  0  0  0  0  0  0  0  0  0
   -0.5330  -54.0292  -22.5768 C   0  0  0  0  0  0  0  0  0  0  0  0
   -1.0862  -53.6517  -21.3687 C   0  0  0  0  0  0  0  0  0  0  0  0
   -1.8331  -54.4622  -20.7347 O   0  0  0  0  0  0  0  0  0  0  0  0
   -0.7979  -52.4183  -20.9183 N   0  0  0  0  0  0  0  0  0  0  0  0
   -0.0063  -51.5705  -21.5985 C   0  0  0  0  0  0  0  0  0  0  0  0
    0.2189  -50.4131  -21.1000 O   0  0  0  0  0  0  0  0  0  0  0  0
   -1.2156  -52.1332  -20.0059 H   0  0  0  0  0  0  0  0  0  0  0  0
    4.7533  -48.9085  -23.2466 C   0  0  0  0  0  0  0  0  0  0  0  0
    4.1348  -49.5189  -24.3316 O   0  0  0  0  0  0  0  0  0  0  0  0
    3.3595  -52.5435  -25.7960 C   0  0  0  0  0  0  0  0  0  0  0  0
    2.3157  -53.3113  -26.3150 O   0  0  0  0  0  0  0  0  0  0  0  0
    2.1916  -53.0529  -27.9803 P   0  0  0  0  0  0  0  0  0  0  0  0
    2.3865  -54.4731  -28.8565 O   0  0  0  0  0  0  0  0  0  0  0  0
    3.4174  -51.9709  -28.4836 O   0  0  0  0  0  0  0  0  0  0  0  0
    0.8588  -52.4037  -28.3106 O   0  0  0  0  0  0  0  0  0  0  0  0
    3.3220  -54.7621  -28.8767 H   0  0  0  0  0  0  0  0  0  0  0  0
    3.3088  -51.1309  -27.9663 H   0  0  0  0  0  0  0  0  0  0  0  0
 17 18  1  0  0  0
 18  1  1  0  0  0
  1  2  1  0  0  0
  2 19  1  0  0  0
 19 20  1  0  0  0
 20 21  1  0  0  0
 21 22  1  0  0  0
 21 23  1  0  0  0
 21 24  2  0  0  0
  2  3  1  0  0  0
  3  4  1  0  0  0
  4  5  1  0  0  0
  5  6  1  0  0  0
  4  8  1  0  0  0
  8  9  1  0  0  0
  9 10  2  0  0  0
 10 11  1  0  0  0
 11 12  2  0  0  0
 11 13  1  0  0  0
 13 14  1  0  0  0
 14 15  2  0  0  0
  5  1  1  0  0  0
 14  8  1  0  0  0
 22 25  1  0  0  0
 23 26  1  0  0  0
  6  7  1  0  0  0
 13 16  1  0  0  0
M  END
> <minimizedAffinity>
-6.96599

> <CNNscore>
0.5513948202

> <CNNaffinity>
4.6172456741

> <CNN_VS>
2.5459253788

> <CNNaffinity_variance>
0.2814196348

$$$$
[H]OC1([H])C([H])([H])[C@]2([H])N(C([H])([H])[H])[C@@]([H])(C1([H])[H])C([H])([H])C2([H])[H]


 11 12  0  0  0  0  0  0  0  0999 V2000
   -0.9753  -54.0084  -22.1597 C   0  0  0  0  0  0  0  0  0  0  0  0
   -0.4069  -52.9786  -21.2289 N   0  0  0  0  0  0  0  0  0  0  0  0
   -0.6032  -52.9293  -19.7427 C   0  0  0  0  0  0  0  0  0  0  0  0
    0.1400  -51.7375  -19.2161 C   0  0  0  0  0  0  0  0  0  0  0  0
    0.7958  -51.0502  -20.3770 C   0  0  0  0  0  0  0  0  0  0  0  0
    0.4578  -51.8173  -21.6210 C   0  0  0  0  0  0  0  0  0  0  0  0
   -0.0358  -52.7687  -22.6842 C   0  0  0  0  0  0  0  0  0  0  0  0
   -0.8880  -53.8788  -22.1442 C   0  0  0  0  0  0  0  0  0  0  0  0
   -1.7450  -55.1095  -22.1110 O   0  0  0  0  0  0  0  0  0  0  0  0
   -1.1717  -53.9591  -20.6735 C   0  0  0  0  0  0  0  0  0  0  0  0
   -2.0548  -55.8421  -23.3828 H   0  0  0  0  0  0  0  0  0  0  0  0
  1  2  1  0  0  0
  2  3  1  0  0  0
  3  4  1  0  0  0
  4  5  1  0  0  0
  5  6  1  0  0  0
  6  7  1  0  0  0
  7  8  1  0  0  0
  8  9  1  0  0  0
  8 10  1  0  0  0
  6  2  1  0  0  0
 10  3  1  0  0  0
  9 11  1  0  0  0
M  END
> <minimizedAffinity>
-4.50249

> <CNNscore>
0.6663432717

> <CNNaffinity>
3.7781035900

> <CNN_VS>
2.5175139904

> <CNNaffinity_variance>
0.0561949983

$$$$
[H]OC1([H])C([H])([H])[C@]2([H])N(C([H])([H])[H])[C@@]([H])(C1([H])[H])C([H])([H])C2([H])[H]


 11 12  0  0  0  0  0  0  0  0999 V2000
    1.1460  -53.5550  -28.4399 C   0  0  0  0  0  0  0  0  0  0  0  0
    0.1451  -52.9942  -27.4737 N   0  0  0  0  0  0  0  0  0  0  0  0
    0.3631  -52.7758  -26.0058 C   0  0  0  0  0  0  0  0  0  0  0  0
   -0.8969  -52.1999  -25.4306 C   0  0  0  0  0  0  0  0  0  0  0  0
   -1.8937  -52.0625  -26.5430 C   0  0  0  0  0  0  0  0  0  0  0  0
   -1.2497  -52.5534  -27.8057 C   0  0  0  0  0  0  0  0  0  0  0  0
   -0.3625  -53.0985  -28.8988 C   0  0  0  0  0  0  0  0  0  0  0  0
    1.0013  -53.4980  -28.4185 C   0  0  0  0  0  0  0  0  0  0  0  0
    2.4088  -54.0159  -28.4436 O   0  0  0  0  0  0  0  0  0  0  0  0
    1.3641  -53.3366  -26.9720 C   0  0  0  0  0  0  0  0  0  0  0  0
    3.0084  -54.4959  -29.7321 H   0  0  0  0  0  0  0  0  0  0  0  0
  1  2  1  0  0  0
  2  3  1  0  0  0
  3  4  1  0  0  0
  4  5  1  0  0  0
  5  6  1  0  0  0
  6  7  1  0  0  0
  7  8  1  0  0  0
  8  9  1  0  0  0
  8 10  1  0  0  0
  6  2  1  0  0  0
 10  3  1  0  0  0
  9 11  1  0  0  0
M  END
> <minimizedAffinity>
-5.09359

> <CNNscore>
0.5646929145

> <CNNaffinity>
4.1553940773

> <CNN_VS>
2.3465216160

> <CNNaffinity_variance>
0.1939807534

$$$$
[H]OC1([H])C([H])([H])[C@]2([H])N(C([H])([H])[H])[C@@]([H])(C1([H])[H])C([H])([H])C2([H])[H]


 11 12  0  0  0  0  0  0  0  0999 V2000
   -0.7936  -54.4661  -21.7252 C   0  0  0  0  0  0  0  0  0  0  0  0
    0.0377  -53.2319  -21.9138 N   0  0  0  0  0  0  0  0  0  0  0  0
    0.2106  -52.4727  -23.1959 C   0  0  0  0  0  0  0  0  0  0  0  0
    1.1218  -51.3117  -22.9279 C   0  0  0  0  0  0  0  0  0  0  0  0
    1.5120  -51.3533  -21.4801 C   0  0  0  0  0  0  0  0  0  0  0  0
    0.8420  -52.5400  -20.8534 C   0  0  0  0  0  0  0  0  0  0  0  0
    0.0552  -53.7790  -20.4996 C   0  0  0  0  0  0  0  0  0  0  0  0
   -0.6983  -54.3601  -21.6592 C   0  0  0  0  0  0  0  0  0  0  0  0
   -1.5860  -55.2790  -22.4453 O   0  0  0  0  0  0  0  0  0  0  0  0
   -0.6206  -53.7070  -23.0073 C   0  0  0  0  0  0  0  0  0  0  0  0
   -2.2336  -56.4530  -21.7729 H   0  0  0  0  0  0  0  0  0  0  0  0
  1  2  1  0  0  0
  2  3  1  0  0  0
  3  4  1  0  0  0
  4  5  1  0  0  0
  5  6  1  0  0  0
  6  7  1  0  0  0
  7  8  1  0  0  0
  8  9  1  0  0  0
  8 10  1  0  0  0
  6  2  1  0  0  0
 10  3  1  0  0  0
  9 11  1  0  0  0
M  END
> <minimizedAffinity>
-4.61423

> <CNNscore>
0.5409153104

> <CNNaffinity>
3.6838226318

> <CNN_VS>
1.9926360846

> <CNNaffinity_variance>
0.1126091331

$$$$
[H]OC1([H])C([H])([H])[C@]2([H])N(C([H])([H])[H])[C@@]([H])(C1([H])[H])C([H])([H])C2([H])[H]


 11 12  0  0  0  0  0  0  0  0999 V2000
   -0.6632  -54.0398  -22.3239 C   0  0  0  0  0  0  0  0  0  0  0  0
   -0.1067  -53.1416  -23.3886 N   0  0  0  0  0  0  0  0  0  0  0  0
   -0.3011  -53.3015  -24.8673 C   0  0  0  0  0  0  0  0  0  0  0  0
    0.4273  -52.1846  -25.5542 C   0  0  0  0  0  0  0  0  0  0  0  0
    1.0720  -51.3343  -24.4999 C   0  0  0  0  0  0  0  0  0  0  0  0
    0.7420  -51.9258  -23.1616 C   0  0  0  0  0  0  0  0  0  0  0  0
    0.2590  -52.7270  -21.9766 C   0  0  0  0  0  0  0  0  0  0  0  0
   -0.5776  -53.9124  -22.3573 C   0  0  0  0  0  0  0  0  0  0  0  0
   -1.4183  -55.1471  -22.2193 O   0  0  0  0  0  0  0  0  0  0  0  0
   -0.8576  -54.1997  -23.8026 C   0  0  0  0  0  0  0  0  0  0  0  0
   -1.7207  -55.7002  -20.8582 H   0  0  0  0  0  0  0  0  0  0  0  0
  1  2  1  0  0  0
  2  3  1  0  0  0
  3  4  1  0  0  0
  4  5  1  0  0  0
  5  6  1  0  0  0
  6  7  1  0  0  0
  7  8  1  0  0  0
  8  9  1  0  0  0
  8 10  1  0  0  0
  6  2  1  0  0  0
 10  3  1  0  0  0
  9 11  1  0  0  0
M  END
> <minimizedAffinity>
-4.47512

> <CNNscore>
0.5015375018

> <CNNaffinity>
3.8669273853

> <CNN_VS>
1.9394091368

> <CNNaffinity_variance>
0.1102559119

$$$$
[H]OC1([H])C([H])([H])[C@]2([H])N(C([H])([H])[H])[C@@]([H])(C1([H])[H])C([H])([H])C2([H])[H]


 11 12  0  0  0  0  0  0  0  0999 V2000
   -0.8599  -52.3392  -25.3818 C   0  0  0  0  0  0  0  0  0  0  0  0
   -0.5735  -52.5939  -26.8320 N   0  0  0  0  0  0  0  0  0  0  0  0
    0.7522  -52.9876  -27.4130 C   0  0  0  0  0  0  0  0  0  0  0  0
    0.5826  -53.1366  -28.8960 C   0  0  0  0  0  0  0  0  0  0  0  0
   -0.8479  -52.8349  -29.2315 C   0  0  0  0  0  0  0  0  0  0  0  0
   -1.5624  -52.4995  -27.9559 C   0  0  0  0  0  0  0  0  0  0  0  0
   -2.0120  -52.2104  -26.5440 C   0  0  0  0  0  0  0  0  0  0  0  0
   -0.9163  -52.3443  -25.5283 C   0  0  0  0  0  0  0  0  0  0  0  0
   -0.2162  -52.3431  -24.2017 O   0  0  0  0  0  0  0  0  0  0  0  0
    0.4658  -52.7329  -25.9628 C   0  0  0  0  0  0  0  0  0  0  0  0
   -0.9747  -52.0006  -22.9537 H   0  0  0  0  0  0  0  0  0  0  0  0
  1  2  1  0  0  0
  2  3  1  0  0  0
  3  4  1  0  0  0
  4  5  1  0  0  0
  5  6  1  0  0  0
  6  7  1  0  0  0
  7  8  1  0  0  0
  8  9  1  0  0  0
  8 10  1  0  0  0
  6  2  1  0  0  0
 10  3  1  0  0  0
  9 11  1  0  0  0
M  END
> <minimizedAffinity>
-4.70437

> <CNNscore>
0.4782362282

> <CNNaffinity>
3.9366943836

> <CNN_VS>
1.8826699257

> <CNNaffinity_variance>
0.2165272236

$$$$
[H]OC1([H])C([H])([H])[C@]2([H])N(C([H])([H])[H])[C@@]([H])(C1([H])[H])C([H])([H])C2([H])[H]


 11 12  0  0  0  0  0  0  0  0999 V2000
    1.0543  -53.2024  -25.9738 C   0  0  0  0  0  0  0  0  0  0  0  0
    0.1677  -52.9828  -27.1636 N   0  0  0  0  0  0  0  0  0  0  0  0
    0.5842  -53.0717  -28.6019 C   0  0  0  0  0  0  0  0  0  0  0  0
   -0.6172  -52.7796  -29.4513 C   0  0  0  0  0  0  0  0  0  0  0  0
   -1.7761  -52.5102  -28.5380 C   0  0  0  0  0  0  0  0  0  0  0  0
   -1.2910  -52.6357  -27.1241 C   0  0  0  0  0  0  0  0  0  0  0  0
   -0.5366  -52.8246  -25.8301 C   0  0  0  0  0  0  0  0  0  0  0  0
    0.9104  -53.1677  -26.0262 C   0  0  0  0  0  0  0  0  0  0  0  0
    2.3346  -53.5091  -25.7018 O   0  0  0  0  0  0  0  0  0  0  0  0
    1.4708  -53.2913  -27.4121 C   0  0  0  0  0  0  0  0  0  0  0  0
    2.7713  -53.6233  -24.2713 H   0  0  0  0  0  0  0  0  0  0  0  0
  1  2  1  0  0  0
  2  3  1  0  0  0
  3  4  1  0  0  0
  4  5  1  0  0  0
  5  6  1  0  0  0
  6  7  1  0  0  0
  7  8  1  0  0  0
  8  9  1  0  0  0
  8 10  1  0  0  0
  6  2  1  0  0  0
 10  3  1  0  0  0
  9 11  1  0  0  0
M  END
> <minimizedAffinity>
-4.84473

> <CNNscore>
0.4749878645

> <CNNaffinity>
4.0147132874

> <CNN_VS>
1.9069401026

> <CNNaffinity_variance>
0.2478453368

$$$$
[H]OC1([H])C([H])([H])[C@]2([H])N(C([H])([H])[H])[C@@]([H])(C1([H])[H])C([H])([H])C2([H])[H]


 11 12  0  0  0  0  0  0  0  0999 V2000
    0.9111  -53.2347  -25.9304 C   0  0  0  0  0  0  0  0  0  0  0  0
    0.0848  -52.9985  -27.1598 N   0  0  0  0  0  0  0  0  0  0  0  0
   -1.3701  -52.6348  -27.1879 C   0  0  0  0  0  0  0  0  0  0  0  0
   -1.7857  -52.4961  -28.6225 C   0  0  0  0  0  0  0  0  0  0  0  0
   -0.5876  -52.7740  -29.4811 C   0  0  0  0  0  0  0  0  0  0  0  0
    0.5684  -53.0845  -28.5771 C   0  0  0  0  0  0  0  0  0  0  0  0
    1.5314  -53.3524  -27.4456 C   0  0  0  0  0  0  0  0  0  0  0  0
    0.9068  -53.2298  -26.0873 C   0  0  0  0  0  0  0  0  0  0  0  0
    0.7697  -53.2320  -24.5935 O   0  0  0  0  0  0  0  0  0  0  0  0
   -0.5439  -52.8710  -25.9584 C   0  0  0  0  0  0  0  0  0  0  0  0
    1.9559  -53.5491  -23.7320 H   0  0  0  0  0  0  0  0  0  0  0  0
  1  2  1  0  0  0
  2  3  1  0  0  0
  3  4  1  0  0  0
  4  5  1  0  0  0
  5  6  1  0  0  0
  6  7  1  0  0  0
  7  8  1  0  0  0
  8  9  1  0  0  0
  8 10  1  0  0  0
  6  2  1  0  0  0
 10  3  1  0  0  0
  9 11  1  0  0  0
M  END
> <minimizedAffinity>
-4.46183

> <CNNscore>
0.4652969539

> <CNNaffinity>
4.0542073250

> <CNN_VS>
1.8864103556

> <CNNaffinity_variance>
0.1923081130

$$$$
[H]OC1([H])C([H])([H])[C@]2([H])N(C([H])([H])[H])[C@@]([H])(C1([H])[H])C([H])([H])C2([H])[H]


 11 12  0  0  0  0  0  0  0  0999 V2000
   -1.1532  -53.5419  -21.3938 C   0  0  0  0  0  0  0  0  0  0  0  0
   -0.6705  -53.4539  -22.8113 N   0  0  0  0  0  0  0  0  0  0  0  0
   -0.8010  -54.5232  -23.8552 C   0  0  0  0  0  0  0  0  0  0  0  0
   -0.1837  -54.0113  -25.1228 C   0  0  0  0  0  0  0  0  0  0  0  0
    0.3284  -52.6257  -24.8624 C   0  0  0  0  0  0  0  0  0  0  0  0
    0.0275  -52.2812  -23.4338 C   0  0  0  0  0  0  0  0  0  0  0  0
   -0.3968  -52.2112  -21.9866 C   0  0  0  0  0  0  0  0  0  0  0  0
   -1.0816  -53.4552  -21.5035 C   0  0  0  0  0  0  0  0  0  0  0  0
   -1.7806  -54.4133  -20.5850 O   0  0  0  0  0  0  0  0  0  0  0  0
   -1.2837  -54.6112  -22.4377 C   0  0  0  0  0  0  0  0  0  0  0  0
   -2.0590  -54.0221  -19.1639 H   0  0  0  0  0  0  0  0  0  0  0  0
  1  2  1  0  0  0
  2  3  1  0  0  0
  3  4  1  0  0  0
  4  5  1  0  0  0
  5  6  1  0  0  0
  6  7  1  0  0  0
  7  8  1  0  0  0
  8  9  1  0  0  0
  8 10  1  0  0  0
  6  2  1  0  0  0
 10  3  1  0  0  0
  9 11  1  0  0  0
M  END
> <minimizedAffinity>
-4.65876

> <CNNscore>
0.4442170858

> <CNNaffinity>
3.8160808086

> <CNN_VS>
1.6951682568

> <CNNaffinity_variance>
0.1074057072

$$$$
[H]OC1([H])C([H])([H])[C@]2([H])N(C([H])([H])[H])[C@@]([H])(C1([H])[H])C([H])([H])C2([H])[H]


 11 12  0  0  0  0  0  0  0  0999 V2000
   -0.6207  -52.6194  -28.7529 C   0  0  0  0  0  0  0  0  0  0  0  0
   -0.3253  -52.5661  -27.2833 N   0  0  0  0  0  0  0  0  0  0  0  0
    1.0312  -52.6732  -26.6521 C   0  0  0  0  0  0  0  0  0  0  0  0
    0.8603  -52.5697  -25.1655 C   0  0  0  0  0  0  0  0  0  0  0  0
   -0.6019  -52.3986  -24.8778 C   0  0  0  0  0  0  0  0  0  0  0  0
   -1.3346  -52.3964  -26.1867 C   0  0  0  0  0  0  0  0  0  0  0  0
   -1.7967  -52.4301  -27.6235 C   0  0  0  0  0  0  0  0  0  0  0  0
   -0.6781  -52.6050  -28.6075 C   0  0  0  0  0  0  0  0  0  0  0  0
    0.0356  -52.7558  -29.9183 O   0  0  0  0  0  0  0  0  0  0  0  0
    0.7359  -52.7265  -28.1218 C   0  0  0  0  0  0  0  0  0  0  0  0
   -0.7421  -52.7473  -31.2009 H   0  0  0  0  0  0  0  0  0  0  0  0
  1  2  1  0  0  0
  2  3  1  0  0  0
  3  4  1  0  0  0
  4  5  1  0  0  0
  5  6  1  0  0  0
  6  7  1  0  0  0
  7  8  1  0  0  0
  8  9  1  0  0  0
  8 10  1  0  0  0
  6  2  1  0  0  0
 10  3  1  0  0  0
  9 11  1  0  0  0
M  END
> <minimizedAffinity>
-4.68536

> <CNNscore>
0.3963633776

> <CNNaffinity>
3.9328925610

> <CNN_VS>
1.5588545799

> <CNNaffinity_variance>
0.2217110842

$$$$
[H]O[C@]1([H])[C@@]([H])(C([H])([H])OP(=O)(O[H])OP(=O)(O[H])OP(=O)(O[H])O[H])O[C@@]([H])(n2c([H])c([H])c(=O)n([H])c2=O)[C@]1([H])O[H]


 36 37  0  0  0  0  0  0  0  0999 V2000
    5.3811  -50.5078  -22.6011 O   0  0  0  0  0  0  0  0  0  0  0  0
    4.0909  -50.9732  -22.8441 C   0  0  0  0  0  0  0  0  0  0  0  0
    3.4116  -51.4471  -21.5212 C   0  0  0  0  0  0  0  0  0  0  0  0
    4.0813  -50.6626  -20.5413 O   0  0  0  0  0  0  0  0  0  0  0  0
    2.0330  -51.0150  -21.7639 C   0  0  0  0  0  0  0  0  0  0  0  0
    1.9221  -50.4488  -23.0656 O   0  0  0  0  0  0  0  0  0  0  0  0
    3.1318  -49.8586  -23.1388 C   0  0  0  0  0  0  0  0  0  0  0  0
    5.9935  -51.1270  -23.0716 H   0  0  0  0  0  0  0  0  0  0  0  0
    3.4566  -49.9332  -20.2930 H   0  0  0  0  0  0  0  0  0  0  0  0
    0.9699  -51.9734  -21.5638 N   0  0  0  0  0  0  0  0  0  0  0  0
    0.6286  -52.7855  -22.5790 C   0  0  0  0  0  0  0  0  0  0  0  0
   -0.3982  -53.7055  -22.5029 C   0  0  0  0  0  0  0  0  0  0  0  0
   -1.0633  -53.7385  -21.2939 C   0  0  0  0  0  0  0  0  0  0  0  0
   -2.0148  -54.5660  -21.1497 O   0  0  0  0  0  0  0  0  0  0  0  0
   -0.7106  -52.9288  -20.2994 N   0  0  0  0  0  0  0  0  0  0  0  0
    0.3048  -52.0382  -20.4099 C   0  0  0  0  0  0  0  0  0  0  0  0
    0.5885  -51.2859  -19.4037 O   0  0  0  0  0  0  0  0  0  0  0  0
   -1.2399  -52.9442  -19.4376 H   0  0  0  0  0  0  0  0  0  0  0  0
    3.4533  -48.9633  -24.2924 C   0  0  0  0  0  0  0  0  0  0  0  0
    3.3522  -47.6542  -23.6818 O   0  0  0  0  0  0  0  0  0  0  0  0
    3.4095  -46.5378  -24.9755 P   0  0  0  0  0  0  0  0  0  0  0  0
    2.2190  -45.3595  -24.5063 O   0  0  0  0  0  0  0  0  0  0  0  0
    4.7398  -45.8681  -25.0837 O   0  0  0  0  0  0  0  0  0  0  0  0
    2.2139  -44.5856  -25.0409 H   0  0  0  0  0  0  0  0  0  0  0  0
    2.9551  -47.1468  -26.4458 O   0  0  0  0  0  0  0  0  0  0  0  0
    2.4446  -45.8803  -27.4733 P   0  0  0  0  0  0  0  0  0  0  0  0
    3.1933  -44.4275  -27.1086 O   0  0  0  0  0  0  0  0  0  0  0  0
    0.9665  -45.7157  -27.3037 O   0  0  0  0  0  0  0  0  0  0  0  0
    4.0435  -44.2878  -27.6028 H   0  0  0  0  0  0  0  0  0  0  0  0
    2.7508  -46.3546  -29.0745 O   0  0  0  0  0  0  0  0  0  0  0  0
    4.2464  -47.1173  -29.1689 P   0  0  0  0  0  0  0  0  0  0  0  0
    4.1071  -48.7434  -28.6506 O   0  0  0  0  0  0  0  0  0  0  0  0
    5.3055  -46.3096  -28.1298 O   0  0  0  0  0  0  0  0  0  0  0  0
    4.8224  -47.0780  -30.5657 O   0  0  0  0  0  0  0  0  0  0  0  0
    3.3602  -49.1749  -29.1400 H   0  0  0  0  0  0  0  0  0  0  0  0
    5.9797  -45.7747  -28.6236 H   0  0  0  0  0  0  0  0  0  0  0  0
  1  2  1  0  0  0
  2  3  1  0  0  0
  3  4  1  0  0  0
  3  5  1  0  0  0
  5  6  1  0  0  0
  6  7  1  0  0  0
  7 19  1  0  0  0
 19 20  1  0  0  0
 20 21  1  0  0  0
 21 22  1  0  0  0
 21 23  2  0  0  0
 21 25  1  0  0  0
 25 26  1  0  0  0
 26 27  1  0  0  0
 26 28  2  0  0  0
 26 30  1  0  0  0
 30 31  1  0  0  0
 31 32  1  0  0  0
 31 33  1  0  0  0
 31 34  2  0  0  0
  5 10  1  0  0  0
 10 11  1  0  0  0
 11 12  2  0  0  0
 12 13  1  0  0  0
 13 14  2  0  0  0
 13 15  1  0  0  0
 15 16  1  0  0  0
 16 17  2  0  0  0
  7  2  1  0  0  0
 16 10  1  0  0  0
  1  8  1  0  0  0
  4  9  1  0  0  0
 22 24  1  0  0  0
 27 29  1  0  0  0
 32 35  1  0  0  0
 33 36  1  0  0  0
 15 18  1  0  0  0
M  END
> <minimizedAffinity>
-6.09654

> <CNNscore>
0.5897309780

> <CNNaffinity>
4.9374599457

> <CNN_VS>
2.9117729664

> <CNNaffinity_variance>
0.4806793332

$$$$
[H]O[C@]1([H])[C@@]([H])(C([H])([H])OP(=O)(O[H])OP(=O)(O[H])OP(=O)(O[H])O[H])O[C@@]([H])(n2c([H])c([H])c(=O)n([H])c2=O)[C@]1([H])O[H]


 36 37  0  0  0  0  0  0  0  0999 V2000
   -0.1260  -52.1060  -26.6084 O   0  0  0  0  0  0  0  0  0  0  0  0
    0.1948  -51.9227  -25.2654 C   0  0  0  0  0  0  0  0  0  0  0  0
   -0.5779  -52.9367  -24.3650 C   0  0  0  0  0  0  0  0  0  0  0  0
   -0.7985  -54.0233  -25.2565 O   0  0  0  0  0  0  0  0  0  0  0  0
    0.4417  -53.2187  -23.3515 C   0  0  0  0  0  0  0  0  0  0  0  0
    1.5987  -52.4240  -23.5905 O   0  0  0  0  0  0  0  0  0  0  0  0
    1.5717  -52.4185  -24.9382 C   0  0  0  0  0  0  0  0  0  0  0  0
   -0.5862  -51.2796  -26.8999 H   0  0  0  0  0  0  0  0  0  0  0  0
   -0.1335  -54.7197  -25.0178 H   0  0  0  0  0  0  0  0  0  0  0  0
    0.0686  -53.1188  -21.9588 N   0  0  0  0  0  0  0  0  0  0  0  0
    0.5697  -52.1116  -21.2232 C   0  0  0  0  0  0  0  0  0  0  0  0
    0.3078  -51.9515  -19.8770 C   0  0  0  0  0  0  0  0  0  0  0  0
   -0.5182  -52.9099  -19.3255 C   0  0  0  0  0  0  0  0  0  0  0  0
   -0.8082  -52.8215  -18.0930 O   0  0  0  0  0  0  0  0  0  0  0  0
   -1.0067  -53.8986  -20.0690 N   0  0  0  0  0  0  0  0  0  0  0  0
   -0.7288  -54.0233  -21.3895 C   0  0  0  0  0  0  0  0  0  0  0  0
   -1.2381  -55.0081  -22.0450 O   0  0  0  0  0  0  0  0  0  0  0  0
   -1.5767  -54.6110  -19.6322 H   0  0  0  0  0  0  0  0  0  0  0  0
    2.7135  -51.8280  -25.7019 C   0  0  0  0  0  0  0  0  0  0  0  0
    3.1924  -50.8214  -24.7777 O   0  0  0  0  0  0  0  0  0  0  0  0
    3.7140  -49.5153  -25.7500 P   0  0  0  0  0  0  0  0  0  0  0  0
    5.4448  -49.6060  -25.6018 O   0  0  0  0  0  0  0  0  0  0  0  0
    3.3389  -49.6952  -27.1842 O   0  0  0  0  0  0  0  0  0  0  0  0
    5.9103  -49.0401  -26.1915 H   0  0  0  0  0  0  0  0  0  0  0  0
    3.2464  -48.0186  -25.2205 O   0  0  0  0  0  0  0  0  0  0  0  0
    3.6131  -46.8378  -26.4002 P   0  0  0  0  0  0  0  0  0  0  0  0
    4.9494  -47.2540  -27.3196 O   0  0  0  0  0  0  0  0  0  0  0  0
    3.8987  -45.5505  -25.6915 O   0  0  0  0  0  0  0  0  0  0  0  0
    4.7209  -47.7805  -28.1303 H   0  0  0  0  0  0  0  0  0  0  0  0
    2.2339  -46.6228  -27.3667 O   0  0  0  0  0  0  0  0  0  0  0  0
    2.6805  -46.0355  -28.8777 P   0  0  0  0  0  0  0  0  0  0  0  0
    3.6631  -44.6447  -28.6974 O   0  0  0  0  0  0  0  0  0  0  0  0
    1.2712  -45.5965  -29.6993 O   0  0  0  0  0  0  0  0  0  0  0  0
    3.4126  -47.0701  -29.7011 O   0  0  0  0  0  0  0  0  0  0  0  0
    4.4016  -44.8511  -28.0684 H   0  0  0  0  0  0  0  0  0  0  0  0
    1.0554  -46.2255  -30.4357 H   0  0  0  0  0  0  0  0  0  0  0  0
  1  2  1  0  0  0
  2  3  1  0  0  0
  3  4  1  0  0  0
  3  5  1  0  0  0
  5  6  1  0  0  0
  6  7  1  0  0  0
  7 19  1  0  0  0
 19 20  1  0  0  0
 20 21  1  0  0  0
 21 22  1  0  0  0
 21 23  2  0  0  0
 21 25  1  0  0  0
 25 26  1  0  0  0
 26 27  1  0  0  0
 26 28  2  0  0  0
 26 30  1  0  0  0
 30 31  1  0  0  0
 31 32  1  0  0  0
 31 33  1  0  0  0
 31 34  2  0  0  0
  5 10  1  0  0  0
 10 11  1  0  0  0
 11 12  2  0  0  0
 12 13  1  0  0  0
 13 14  2  0  0  0
 13 15  1  0  0  0
 15 16  1  0  0  0
 16 17  2  0  0  0
  7  2  1  0  0  0
 16 10  1  0  0  0
  1  8  1  0  0  0
  4  9  1  0  0  0
 22 24  1  0  0  0
 27 29  1  0  0  0
 32 35  1  0  0  0
 33 36  1  0  0  0
 15 18  1  0  0  0
M  END
> <minimizedAffinity>
-7.01551

> <CNNscore>
0.5671614408

> <CNNaffinity>
5.0035448074

> <CNN_VS>
2.8378176689

> <CNNaffinity_variance>
0.4588068426

$$$$
[H]O[C@]1([H])[C@@]([H])(C([H])([H])OP(=O)(O[H])OP(=O)(O[H])OP(=O)(O[H])O[H])O[C@@]([H])(n2c([H])c([H])c(=O)n([H])c2=O)[C@]1([H])O[H]


 36 37  0  0  0  0  0  0  0  0999 V2000
    0.1768  -52.0192  -26.0792 O   0  0  0  0  0  0  0  0  0  0  0  0
    0.4446  -51.9434  -24.7144 C   0  0  0  0  0  0  0  0  0  0  0  0
   -0.5780  -52.7943  -23.8982 C   0  0  0  0  0  0  0  0  0  0  0  0
   -0.9655  -53.7858  -24.8421 O   0  0  0  0  0  0  0  0  0  0  0  0
    0.2947  -53.3122  -22.8416 C   0  0  0  0  0  0  0  0  0  0  0  0
    1.6052  -52.7743  -22.9851 O   0  0  0  0  0  0  0  0  0  0  0  0
    1.6639  -52.7277  -24.3310 C   0  0  0  0  0  0  0  0  0  0  0  0
   -0.0809  -51.1068  -26.3634 H   0  0  0  0  0  0  0  0  0  0  0  0
   -0.4774  -54.6131  -24.5943 H   0  0  0  0  0  0  0  0  0  0  0  0
   -0.1353  -53.1724  -21.4689 N   0  0  0  0  0  0  0  0  0  0  0  0
    0.4812  -52.2720  -20.6841 C   0  0  0  0  0  0  0  0  0  0  0  0
    0.1733  -52.0903  -19.3504 C   0  0  0  0  0  0  0  0  0  0  0  0
   -0.8280  -52.9077  -18.8665 C   0  0  0  0  0  0  0  0  0  0  0  0
   -1.1688  -52.7906  -17.6495 O   0  0  0  0  0  0  0  0  0  0  0  0
   -1.4286  -53.7919  -19.6580 N   0  0  0  0  0  0  0  0  0  0  0  0
   -1.1006  -53.9416  -20.9644 C   0  0  0  0  0  0  0  0  0  0  0  0
   -1.7260  -54.8197  -21.6691 O   0  0  0  0  0  0  0  0  0  0  0  0
   -2.1310  -54.4071  -19.2691 H   0  0  0  0  0  0  0  0  0  0  0  0
    2.9494  -52.3721  -25.0068 C   0  0  0  0  0  0  0  0  0  0  0  0
    3.9199  -52.7316  -23.9940 O   0  0  0  0  0  0  0  0  0  0  0  0
    4.7205  -51.2766  -23.5875 P   0  0  0  0  0  0  0  0  0  0  0  0
    5.5959  -51.7196  -22.1511 O   0  0  0  0  0  0  0  0  0  0  0  0
    5.6936  -50.8557  -24.6392 O   0  0  0  0  0  0  0  0  0  0  0  0
    6.2125  -51.0707  -21.8623 H   0  0  0  0  0  0  0  0  0  0  0  0
    3.7233  -50.0156  -23.1941 O   0  0  0  0  0  0  0  0  0  0  0  0
    4.1202  -48.6403  -24.1276 P   0  0  0  0  0  0  0  0  0  0  0  0
    5.7374  -48.2275  -23.9923 O   0  0  0  0  0  0  0  0  0  0  0  0
    3.2889  -47.4953  -23.6391 O   0  0  0  0  0  0  0  0  0  0  0  0
    6.3147  -48.6706  -24.6683 H   0  0  0  0  0  0  0  0  0  0  0  0
    3.6923  -48.9642  -25.7384 O   0  0  0  0  0  0  0  0  0  0  0  0
    4.4804  -47.8918  -26.7661 P   0  0  0  0  0  0  0  0  0  0  0  0
    4.4818  -46.3215  -26.0831 O   0  0  0  0  0  0  0  0  0  0  0  0
    3.6235  -47.8455  -28.2213 O   0  0  0  0  0  0  0  0  0  0  0  0
    5.9004  -48.3183  -27.0596 O   0  0  0  0  0  0  0  0  0  0  0  0
    4.8244  -46.3745  -25.1539 H   0  0  0  0  0  0  0  0  0  0  0  0
    4.1083  -48.3029  -28.9563 H   0  0  0  0  0  0  0  0  0  0  0  0
  1  2  1  0  0  0
  2  3  1  0  0  0
  3  4  1  0  0  0
  3  5  1  0  0  0
  5  6  1  0  0  0
  6  7  1  0  0  0
  7 19  1  0  0  0
 19 20  1  0  0  0
 20 21  1  0  0  0
 21 22  1  0  0  0
 21 23  2  0  0  0
 21 25  1  0  0  0
 25 26  1  0  0  0
 26 27  1  0  0  0
 26 28  2  0  0  0
 26 30  1  0  0  0
 30 31  1  0  0  0
 31 32  1  0  0  0
 31 33  1  0  0  0
 31 34  2  0  0  0
  5 10  1  0  0  0
 10 11  1  0  0  0
 11 12  2  0  0  0
 12 13  1  0  0  0
 13 14  2  0  0  0
 13 15  1  0  0  0
 15 16  1  0  0  0
 16 17  2  0  0  0
  7  2  1  0  0  0
 16 10  1  0  0  0
  1  8  1  0  0  0
  4  9  1  0  0  0
 22 24  1  0  0  0
 27 29  1  0  0  0
 32 35  1  0  0  0
 33 36  1  0  0  0
 15 18  1  0  0  0
M  END
> <minimizedAffinity>
-6.59757

> <CNNscore>
0.4653075337

> <CNNaffinity>
4.9234147072

> <CNN_VS>
2.2909018993

> <CNNaffinity_variance>
0.4280714989

$$$$
[H]O[C@]1([H])[C@@]([H])(C([H])([H])OP(=O)(O[H])OP(=O)(O[H])OP(=O)(O[H])O[H])O[C@@]([H])(n2c([H])c([H])c(=O)n([H])c2=O)[C@]1([H])O[H]


 36 37  0  0  0  0  0  0  0  0999 V2000
   -0.8300  -52.3319  -26.7821 O   0  0  0  0  0  0  0  0  0  0  0  0
   -0.4949  -52.0135  -25.4682 C   0  0  0  0  0  0  0  0  0  0  0  0
   -0.8879  -53.1707  -24.4973 C   0  0  0  0  0  0  0  0  0  0  0  0
   -0.8404  -54.3083  -25.3504 O   0  0  0  0  0  0  0  0  0  0  0  0
    0.2289  -53.1110  -23.5511 C   0  0  0  0  0  0  0  0  0  0  0  0
    1.0922  -52.0289  -23.8844 O   0  0  0  0  0  0  0  0  0  0  0  0
    0.9835  -52.0828  -25.2269 C   0  0  0  0  0  0  0  0  0  0  0  0
   -1.5250  -51.6830  -27.0572 H   0  0  0  0  0  0  0  0  0  0  0  0
    0.0097  -54.7762  -25.1446 H   0  0  0  0  0  0  0  0  0  0  0  0
   -0.0725  -53.0686  -22.1382 N   0  0  0  0  0  0  0  0  0  0  0  0
    0.3585  -52.0217  -21.4137 C   0  0  0  0  0  0  0  0  0  0  0  0
    0.1584  -51.9068  -20.0524 C   0  0  0  0  0  0  0  0  0  0  0  0
   -0.5266  -52.9556  -19.4730 C   0  0  0  0  0  0  0  0  0  0  0  0
   -0.7534  -52.9138  -18.2249 O   0  0  0  0  0  0  0  0  0  0  0  0
   -0.9475  -53.9827  -20.2058 N   0  0  0  0  0  0  0  0  0  0  0  0
   -0.7339  -54.0609  -21.5417 C   0  0  0  0  0  0  0  0  0  0  0  0
   -1.1708  -55.0874  -22.1854 O   0  0  0  0  0  0  0  0  0  0  0  0
   -1.4115  -54.7579  -19.7508 H   0  0  0  0  0  0  0  0  0  0  0  0
    1.8592  -51.2206  -26.0786 C   0  0  0  0  0  0  0  0  0  0  0  0
    2.9329  -50.9002  -25.1614 O   0  0  0  0  0  0  0  0  0  0  0  0
    3.7169  -49.5358  -25.8298 P   0  0  0  0  0  0  0  0  0  0  0  0
    5.3947  -49.8833  -25.5293 O   0  0  0  0  0  0  0  0  0  0  0  0
    3.4997  -49.4262  -27.3032 O   0  0  0  0  0  0  0  0  0  0  0  0
    5.9909  -49.2971  -25.9601 H   0  0  0  0  0  0  0  0  0  0  0  0
    3.3666  -48.0963  -25.0920 O   0  0  0  0  0  0  0  0  0  0  0  0
    3.2986  -48.3066  -23.3974 P   0  0  0  0  0  0  0  0  0  0  0  0
    2.1808  -49.4695  -22.9474 O   0  0  0  0  0  0  0  0  0  0  0  0
    2.9048  -46.9985  -22.7854 O   0  0  0  0  0  0  0  0  0  0  0  0
    2.5634  -50.3848  -22.8977 H   0  0  0  0  0  0  0  0  0  0  0  0
    4.8598  -48.7015  -22.8596 O   0  0  0  0  0  0  0  0  0  0  0  0
    5.8951  -47.3992  -23.1038 P   0  0  0  0  0  0  0  0  0  0  0  0
    5.1408  -46.2323  -24.1046 O   0  0  0  0  0  0  0  0  0  0  0  0
    7.2736  -47.9752  -23.8925 O   0  0  0  0  0  0  0  0  0  0  0  0
    6.3207  -46.7541  -21.8049 O   0  0  0  0  0  0  0  0  0  0  0  0
    4.2454  -46.0206  -23.7345 H   0  0  0  0  0  0  0  0  0  0  0  0
    8.0657  -47.9961  -23.2954 H   0  0  0  0  0  0  0  0  0  0  0  0
  1  2  1  0  0  0
  2  3  1  0  0  0
  3  4  1  0  0  0
  3  5  1  0  0  0
  5  6  1  0  0  0
  6  7  1  0  0  0
  7 19  1  0  0  0
 19 20  1  0  0  0
 20 21  1  0  0  0
 21 22  1  0  0  0
 21 23  2  0  0  0
 21 25  1  0  0  0
 25 26  1  0  0  0
 26 27  1  0  0  0
 26 28  2  0  0  0
 26 30  1  0  0  0
 30 31  1  0  0  0
 31 32  1  0  0  0
 31 33  1  0  0  0
 31 34  2  0  0  0
  5 10  1  0  0  0
 10 11  1  0  0  0
 11 12  2  0  0  0
 12 13  1  0  0  0
 13 14  2  0  0  0
 13 15  1  0  0  0
 15 16  1  0  0  0
 16 17  2  0  0  0
  7  2  1  0  0  0
 16 10  1  0  0  0
  1  8  1  0  0  0
  4  9  1  0  0  0
 22 24  1  0  0  0
 27 29  1  0  0  0
 32 35  1  0  0  0
 33 36  1  0  0  0
 15 18  1  0  0  0
M  END
> <minimizedAffinity>
-6.32372

> <CNNscore>
0.4510182738

> <CNNaffinity>
5.0344552994

> <CNN_VS>
2.2706313133

> <CNNaffinity_variance>
0.2586466670

$$$$
[H]O[C@]1([H])[C@@]([H])(C([H])([H])OP(=O)(O[H])OP(=O)(O[H])OP(=O)(O[H])O[H])O[C@@]([H])(n2c([H])c([H])c(=O)n([H])c2=O)[C@]1([H])O[H]


 36 37  0  0  0  0  0  0  0  0999 V2000
    0.6457  -51.4951  -26.0751 O   0  0  0  0  0  0  0  0  0  0  0  0
    0.8515  -51.6553  -24.7068 C   0  0  0  0  0  0  0  0  0  0  0  0
   -0.3795  -52.3404  -24.0351 C   0  0  0  0  0  0  0  0  0  0  0  0
   -0.9322  -53.0883  -25.1118 O   0  0  0  0  0  0  0  0  0  0  0  0
    0.2955  -53.1752  -23.0382 C   0  0  0  0  0  0  0  0  0  0  0  0
    1.6998  -52.9431  -23.0792 O   0  0  0  0  0  0  0  0  0  0  0  0
    1.8384  -52.7432  -24.4050 C   0  0  0  0  0  0  0  0  0  0  0  0
    0.6177  -50.5195  -26.2401 H   0  0  0  0  0  0  0  0  0  0  0  0
   -0.6590  -54.0308  -24.9662 H   0  0  0  0  0  0  0  0  0  0  0  0
   -0.1629  -53.1123  -21.6691 N   0  0  0  0  0  0  0  0  0  0  0  0
    0.3667  -52.1885  -20.8490 C   0  0  0  0  0  0  0  0  0  0  0  0
    0.0270  -52.0728  -19.5157 C   0  0  0  0  0  0  0  0  0  0  0  0
   -0.9101  -52.9836  -19.0715 C   0  0  0  0  0  0  0  0  0  0  0  0
   -1.2759  -52.9314  -17.8572 O   0  0  0  0  0  0  0  0  0  0  0  0
   -1.4252  -53.8898  -19.8977 N   0  0  0  0  0  0  0  0  0  0  0  0
   -1.0684  -53.9728  -21.2024 C   0  0  0  0  0  0  0  0  0  0  0  0
   -1.6099  -54.8775  -21.9420 O   0  0  0  0  0  0  0  0  0  0  0  0
   -2.0799  -54.5718  -19.5379 H   0  0  0  0  0  0  0  0  0  0  0  0
    3.2048  -52.6146  -24.9983 C   0  0  0  0  0  0  0  0  0  0  0  0
    3.4932  -51.2150  -24.7644 O   0  0  0  0  0  0  0  0  0  0  0  0
    4.8898  -51.1919  -23.7784 P   0  0  0  0  0  0  0  0  0  0  0  0
    6.0355  -52.0899  -24.7307 O   0  0  0  0  0  0  0  0  0  0  0  0
    5.4101  -49.8077  -23.5702 O   0  0  0  0  0  0  0  0  0  0  0  0
    6.9159  -52.0591  -24.4012 H   0  0  0  0  0  0  0  0  0  0  0  0
    4.7332  -51.9681  -22.3251 O   0  0  0  0  0  0  0  0  0  0  0  0
    4.1291  -50.8891  -21.1456 P   0  0  0  0  0  0  0  0  0  0  0  0
    5.2870  -49.7905  -20.6392 O   0  0  0  0  0  0  0  0  0  0  0  0
    3.6836  -51.6965  -19.9664 O   0  0  0  0  0  0  0  0  0  0  0  0
    5.3028  -48.9577  -21.1803 H   0  0  0  0  0  0  0  0  0  0  0  0
    2.7729  -50.1070  -21.8025 O   0  0  0  0  0  0  0  0  0  0  0  0
    2.4144  -48.7321  -20.9033 P   0  0  0  0  0  0  0  0  0  0  0  0
    3.4724  -47.4575  -21.3371 O   0  0  0  0  0  0  0  0  0  0  0  0
    2.6571  -49.1024  -19.2730 O   0  0  0  0  0  0  0  0  0  0  0  0
    0.9818  -48.2859  -21.0852 O   0  0  0  0  0  0  0  0  0  0  0  0
    3.4650  -47.3539  -22.3234 H   0  0  0  0  0  0  0  0  0  0  0  0
    1.8023  -49.1803  -18.7752 H   0  0  0  0  0  0  0  0  0  0  0  0
  1  2  1  0  0  0
  2  3  1  0  0  0
  3  4  1  0  0  0
  3  5  1  0  0  0
  5  6  1  0  0  0
  6  7  1  0  0  0
  7 19  1  0  0  0
 19 20  1  0  0  0
 20 21  1  0  0  0
 21 22  1  0  0  0
 21 23  2  0  0  0
 21 25  1  0  0  0
 25 26  1  0  0  0
 26 27  1  0  0  0
 26 28  2  0  0  0
 26 30  1  0  0  0
 30 31  1  0  0  0
 31 32  1  0  0  0
 31 33  1  0  0  0
 31 34  2  0  0  0
  5 10  1  0  0  0
 10 11  1  0  0  0
 11 12  2  0  0  0
 12 13  1  0  0  0
 13 14  2  0  0  0
 13 15  1  0  0  0
 15 16  1  0  0  0
 16 17  2  0  0  0
  7  2  1  0  0  0
 16 10  1  0  0  0
  1  8  1  0  0  0
  4  9  1  0  0  0
 22 24  1  0  0  0
 27 29  1  0  0  0
 32 35  1  0  0  0
 33 36  1  0  0  0
 15 18  1  0  0  0
M  END
> <minimizedAffinity>
-6.96908

> <CNNscore>
0.4270096421

> <CNNaffinity>
4.7498755455

> <CNN_VS>
2.0282425880

> <CNNaffinity_variance>
0.1818747222

$$$$
[H]O[C@]1([H])[C@@]([H])(C([H])([H])OP(=O)(O[H])OP(=O)(O[H])OP(=O)(O[H])O[H])O[C@@]([H])(n2c([H])c([H])c(=O)n([H])c2=O)[C@]1([H])O[H]


 36 37  0  0  0  0  0  0  0  0999 V2000
    0.4886  -51.6380  -25.7909 O   0  0  0  0  0  0  0  0  0  0  0  0
    0.7291  -51.7109  -24.4209 C   0  0  0  0  0  0  0  0  0  0  0  0
   -0.4342  -52.4516  -23.6901 C   0  0  0  0  0  0  0  0  0  0  0  0
   -0.9459  -53.2941  -24.7160 O   0  0  0  0  0  0  0  0  0  0  0  0
    0.3195  -53.1800  -22.6666 C   0  0  0  0  0  0  0  0  0  0  0  0
    1.7009  -52.8446  -22.7482 O   0  0  0  0  0  0  0  0  0  0  0  0
    1.8015  -52.7038  -24.0850 C   0  0  0  0  0  0  0  0  0  0  0  0
    0.3831  -50.6772  -26.0043 H   0  0  0  0  0  0  0  0  0  0  0  0
   -0.5987  -54.2043  -24.5288 H   0  0  0  0  0  0  0  0  0  0  0  0
   -0.1194  -53.0811  -21.2931 N   0  0  0  0  0  0  0  0  0  0  0  0
    0.5109  -52.2253  -20.4703 C   0  0  0  0  0  0  0  0  0  0  0  0
    0.1953  -52.0861  -19.1333 C   0  0  0  0  0  0  0  0  0  0  0  0
   -0.8291  -52.8970  -18.6884 C   0  0  0  0  0  0  0  0  0  0  0  0
   -1.1781  -52.8171  -17.4707 O   0  0  0  0  0  0  0  0  0  0  0  0
   -1.4430  -53.7367  -19.5173 N   0  0  0  0  0  0  0  0  0  0  0  0
   -1.1069  -53.8454  -20.8256 C   0  0  0  0  0  0  0  0  0  0  0  0
   -1.7462  -54.6817  -21.5677 O   0  0  0  0  0  0  0  0  0  0  0  0
   -2.1631  -54.3491  -19.1573 H   0  0  0  0  0  0  0  0  0  0  0  0
    3.1439  -52.5029  -24.7122 C   0  0  0  0  0  0  0  0  0  0  0  0
    3.2595  -51.0596  -24.6965 O   0  0  0  0  0  0  0  0  0  0  0  0
    4.6049  -50.7169  -23.6988 P   0  0  0  0  0  0  0  0  0  0  0  0
    4.3569  -51.7915  -22.3535 O   0  0  0  0  0  0  0  0  0  0  0  0
    5.8993  -51.0579  -24.3609 O   0  0  0  0  0  0  0  0  0  0  0  0
    5.0866  -51.8402  -21.7620 H   0  0  0  0  0  0  0  0  0  0  0  0
    4.6579  -49.1745  -23.1010 O   0  0  0  0  0  0  0  0  0  0  0  0
    3.8853  -49.1084  -21.5782 P   0  0  0  0  0  0  0  0  0  0  0  0
    4.7370  -49.9378  -20.3988 O   0  0  0  0  0  0  0  0  0  0  0  0
    2.5309  -49.7299  -21.7203 O   0  0  0  0  0  0  0  0  0  0  0  0
    5.4006  -49.3731  -19.9219 H   0  0  0  0  0  0  0  0  0  0  0  0
    3.6840  -47.4732  -21.1679 O   0  0  0  0  0  0  0  0  0  0  0  0
    3.8544  -47.2753  -19.5068 P   0  0  0  0  0  0  0  0  0  0  0  0
    3.4683  -45.6660  -19.0671 O   0  0  0  0  0  0  0  0  0  0  0  0
    5.4712  -47.5679  -19.1141 O   0  0  0  0  0  0  0  0  0  0  0  0
    2.9896  -48.2362  -18.7236 O   0  0  0  0  0  0  0  0  0  0  0  0
    2.5850  -45.4300  -19.4512 H   0  0  0  0  0  0  0  0  0  0  0  0
    5.5905  -48.4282  -18.6344 H   0  0  0  0  0  0  0  0  0  0  0  0
  1  2  1  0  0  0
  2  3  1  0  0  0
  3  4  1  0  0  0
  3  5  1  0  0  0
  5  6  1  0  0  0
  6  7  1  0  0  0
  7 19  1  0  0  0
 19 20  1  0  0  0
 20 21  1  0  0  0
 21 22  1  0  0  0
 21 23  2  0  0  0
 21 25  1  0  0  0
 25 26  1  0  0  0
 26 27  1  0  0  0
 26 28  2  0  0  0
 26 30  1  0  0  0
 30 31  1  0  0  0
 31 32  1  0  0  0
 31 33  1  0  0  0
 31 34  2  0  0  0
  5 10  1  0  0  0
 10 11  1  0  0  0
 11 12  2  0  0  0
 12 13  1  0  0  0
 13 14  2  0  0  0
 13 15  1  0  0  0
 15 16  1  0  0  0
 16 17  2  0  0  0
  7  2  1  0  0  0
 16 10  1  0  0  0
  1  8  1  0  0  0
  4  9  1  0  0  0
 22 24  1  0  0  0
 27 29  1  0  0  0
 32 35  1  0  0  0
 33 36  1  0  0  0
 15 18  1  0  0  0
M  END
> <minimizedAffinity>
-6.02631

> <CNNscore>
0.3707723320

> <CNNaffinity>
4.6983652115

> <CNN_VS>
1.7420238256

> <CNNaffinity_variance>
0.1597407758

$$$$
[H]O[C@]1([H])[C@@]([H])(C([H])([H])OP(=O)(O[H])OP(=O)(O[H])OP(=O)(O[H])O[H])O[C@@]([H])(n2c([H])c([H])c(=O)n([H])c2=O)[C@]1([H])O[H]


 36 37  0  0  0  0  0  0  0  0999 V2000
    3.5365  -51.0765  -22.7384 O   0  0  0  0  0  0  0  0  0  0  0  0
    2.4434  -51.3492  -23.5576 C   0  0  0  0  0  0  0  0  0  0  0  0
    2.9086  -51.9039  -24.9403 C   0  0  0  0  0  0  0  0  0  0  0  0
    4.1594  -52.5011  -24.6195 O   0  0  0  0  0  0  0  0  0  0  0  0
    1.8505  -52.8833  -25.2003 C   0  0  0  0  0  0  0  0  0  0  0  0
    0.8802  -52.8399  -24.1591 O   0  0  0  0  0  0  0  0  0  0  0  0
    1.7003  -52.5768  -23.1222 C   0  0  0  0  0  0  0  0  0  0  0  0
    3.5374  -50.0975  -22.5922 H   0  0  0  0  0  0  0  0  0  0  0  0
    3.9988  -53.4790  -24.5757 H   0  0  0  0  0  0  0  0  0  0  0  0
    1.1833  -52.8463  -26.4817 N   0  0  0  0  0  0  0  0  0  0  0  0
   -0.1069  -52.4728  -26.5312 C   0  0  0  0  0  0  0  0  0  0  0  0
   -0.8446  -52.4436  -27.6981 C   0  0  0  0  0  0  0  0  0  0  0  0
   -0.1582  -52.8291  -28.8318 C   0  0  0  0  0  0  0  0  0  0  0  0
   -0.7719  -52.8196  -29.9427 O   0  0  0  0  0  0  0  0  0  0  0  0
    1.1192  -53.1938  -28.7644 N   0  0  0  0  0  0  0  0  0  0  0  0
    1.8124  -53.2088  -27.6002 C   0  0  0  0  0  0  0  0  0  0  0  0
    3.0473  -53.5746  -27.6128 O   0  0  0  0  0  0  0  0  0  0  0  0
    1.5880  -53.5107  -29.6029 H   0  0  0  0  0  0  0  0  0  0  0  0
    1.1635  -52.5956  -21.7268 C   0  0  0  0  0  0  0  0  0  0  0  0
    1.2881  -51.2036  -21.3482 O   0  0  0  0  0  0  0  0  0  0  0  0
    1.2949  -51.1909  -19.6385 P   0  0  0  0  0  0  0  0  0  0  0  0
   -0.0456  -52.2295  -19.2509 O   0  0  0  0  0  0  0  0  0  0  0  0
    2.5456  -51.7813  -19.0752 O   0  0  0  0  0  0  0  0  0  0  0  0
   -0.1065  -52.4532  -18.3394 H   0  0  0  0  0  0  0  0  0  0  0  0
    0.9981  -49.7161  -18.9485 O   0  0  0  0  0  0  0  0  0  0  0  0
    1.1454  -49.8227  -17.2493 P   0  0  0  0  0  0  0  0  0  0  0  0
    0.8441  -51.3694  -16.6828 O   0  0  0  0  0  0  0  0  0  0  0  0
    0.1506  -48.8848  -16.6400 O   0  0  0  0  0  0  0  0  0  0  0  0
    1.6569  -51.9389  -16.6414 H   0  0  0  0  0  0  0  0  0  0  0  0
    2.7043  -49.2976  -16.8288 O   0  0  0  0  0  0  0  0  0  0  0  0
    3.1714  -50.0005  -15.3744 P   0  0  0  0  0  0  0  0  0  0  0  0
    1.8394  -50.0616  -14.3001 O   0  0  0  0  0  0  0  0  0  0  0  0
    4.3706  -49.0264  -14.6907 O   0  0  0  0  0  0  0  0  0  0  0  0
    3.7338  -51.3905  -15.5643 O   0  0  0  0  0  0  0  0  0  0  0  0
    1.0694  -50.4796  -14.7648 H   0  0  0  0  0  0  0  0  0  0  0  0
    5.2676  -49.4479  -14.7377 H   0  0  0  0  0  0  0  0  0  0  0  0
  1  2  1  0  0  0
  2  3  1  0  0  0
  3  4  1  0  0  0
  3  5  1  0  0  0
  5  6  1  0  0  0
  6  7  1  0  0  0
  7 19  1  0  0  0
 19 20  1  0  0  0
 20 21  1  0  0  0
 21 22  1  0  0  0
 21 23  2  0  0  0
 21 25  1  0  0  0
 25 26  1  0  0  0
 26 27  1  0  0  0
 26 28  2  0  0  0
 26 30  1  0  0  0
 30 31  1  0  0  0
 31 32  1  0  0  0
 31 33  1  0  0  0
 31 34  2  0  0  0
  5 10  1  0  0  0
 10 11  1  0  0  0
 11 12  2  0  0  0
 12 13  1  0  0  0
 13 14  2  0  0  0
 13 15  1  0  0  0
 15 16  1  0  0  0
 16 17  2  0  0  0
  7  2  1  0  0  0
 16 10  1  0  0  0
  1  8  1  0  0  0
  4  9  1  0  0  0
 22 24  1  0  0  0
 27 29  1  0  0  0
 32 35  1  0  0  0
 33 36  1  0  0  0
 15 18  1  0  0  0
M  END
> <minimizedAffinity>
-6.50490

> <CNNscore>
0.1990948766

> <CNNaffinity>
4.4703874588

> <CNN_VS>
0.8900312185

> <CNNaffinity_variance>
0.3218785226

$$$$
[H]O[C@]1([H])[C@@]([H])(C([H])([H])OP(=O)(O[H])OP(=O)(O[H])OP(=O)(O[H])O[H])O[C@@]([H])(n2c([H])c([H])c(=O)n([H])c2=O)[C@]1([H])O[H]


 36 37  0  0  0  0  0  0  0  0999 V2000
   -0.2660  -54.7430  -21.3076 O   0  0  0  0  0  0  0  0  0  0  0  0
    0.0708  -54.0169  -22.4476 C   0  0  0  0  0  0  0  0  0  0  0  0
   -0.7636  -54.4931  -23.6776 C   0  0  0  0  0  0  0  0  0  0  0  0
   -1.9412  -55.0029  -23.0632 O   0  0  0  0  0  0  0  0  0  0  0  0
   -0.9759  -53.2153  -24.3621 C   0  0  0  0  0  0  0  0  0  0  0  0
   -0.2966  -52.1731  -23.6695 O   0  0  0  0  0  0  0  0  0  0  0  0
   -0.4663  -52.6174  -22.4082 C   0  0  0  0  0  0  0  0  0  0  0  0
    0.5432  -55.2533  -21.0534 H   0  0  0  0  0  0  0  0  0  0  0  0
   -2.6420  -54.3117  -23.1864 H   0  0  0  0  0  0  0  0  0  0  0  0
   -0.6698  -53.1351  -25.7723 N   0  0  0  0  0  0  0  0  0  0  0  0
    0.4111  -53.7829  -26.2398 C   0  0  0  0  0  0  0  0  0  0  0  0
    0.8120  -53.7361  -27.5603 C   0  0  0  0  0  0  0  0  0  0  0  0
    0.0154  -52.9676  -28.3847 C   0  0  0  0  0  0  0  0  0  0  0  0
    0.3199  -52.8848  -29.6141 O   0  0  0  0  0  0  0  0  0  0  0  0
   -1.0519  -52.3349  -27.9052 N   0  0  0  0  0  0  0  0  0  0  0  0
   -1.4161  -52.4050  -26.6018 C   0  0  0  0  0  0  0  0  0  0  0  0
   -2.4624  -51.7643  -26.2101 O   0  0  0  0  0  0  0  0  0  0  0  0
   -1.5958  -51.7455  -28.5215 H   0  0  0  0  0  0  0  0  0  0  0  0
   -0.0569  -51.7571  -21.2558 C   0  0  0  0  0  0  0  0  0  0  0  0
    0.8467  -50.8240  -21.8958 O   0  0  0  0  0  0  0  0  0  0  0  0
    1.7520  -50.1182  -20.6287 P   0  0  0  0  0  0  0  0  0  0  0  0
    3.3071  -49.8755  -21.3696 O   0  0  0  0  0  0  0  0  0  0  0  0
    1.2007  -48.7946  -20.2114 O   0  0  0  0  0  0  0  0  0  0  0  0
    3.9014  -49.3604  -20.8537 H   0  0  0  0  0  0  0  0  0  0  0  0
    1.9763  -51.0866  -19.3055 O   0  0  0  0  0  0  0  0  0  0  0  0
    2.9477  -50.2857  -18.1499 P   0  0  0  0  0  0  0  0  0  0  0  0
    4.0961  -49.2972  -18.8630 O   0  0  0  0  0  0  0  0  0  0  0  0
    3.6488  -51.3272  -17.3348 O   0  0  0  0  0  0  0  0  0  0  0  0
    3.7754  -48.3702  -19.0189 H   0  0  0  0  0  0  0  0  0  0  0  0
    1.9184  -49.4065  -17.1252 O   0  0  0  0  0  0  0  0  0  0  0  0
    2.5670  -47.8828  -16.8335 P   0  0  0  0  0  0  0  0  0  0  0  0
    1.5439  -47.0040  -15.7785 O   0  0  0  0  0  0  0  0  0  0  0  0
    2.6497  -47.0646  -18.3093 O   0  0  0  0  0  0  0  0  0  0  0  0
    3.9582  -47.9550  -16.2471 O   0  0  0  0  0  0  0  0  0  0  0  0
    1.3487  -47.5604  -14.9811 H   0  0  0  0  0  0  0  0  0  0  0  0
    3.5822  -46.9745  -18.6360 H   0  0  0  0  0  0  0  0  0  0  0  0
  1  2  1  0  0  0
  2  3  1  0  0  0
  3  4  1  0  0  0
  3  5  1  0  0  0
  5  6  1  0  0  0
  6  7  1  0  0  0
  7 19  1  0  0  0
 19 20  1  0  0  0
 20 21  1  0  0  0
 21 22  1  0  0  0
 21 23  2  0  0  0
 21 25  1  0  0  0
 25 26  1  0  0  0
 26 27  1  0  0  0
 26 28  2  0  0  0
 26 30  1  0  0  0
 30 31  1  0  0  0
 31 32  1  0  0  0
 31 33  1  0  0  0
 31 34  2  0  0  0
  5 10  1  0  0  0
 10 11  1  0  0  0
 11 12  2  0  0  0
 12 13  1  0  0  0
 13 14  2  0  0  0
 13 15  1  0  0  0
 15 16  1  0  0  0
 16 17  2  0  0  0
  7  2  1  0  0  0
 16 10  1  0  0  0
  1  8  1  0  0  0
  4  9  1  0  0  0
 22 24  1  0  0  0
 27 29  1  0  0  0
 32 35  1  0  0  0
 33 36  1  0  0  0
 15 18  1  0  0  0
M  END
> <minimizedAffinity>
-6.55049

> <CNNscore>
0.1955493391

> <CNNaffinity>
4.5217490196

> <CNN_VS>
0.8842250109

> <CNNaffinity_variance>
0.0818924755

$$$$
[H]O[C@]1([H])[C@@]([H])(C([H])([H])OP(=O)(O[H])OP(=O)(O[H])OP(=O)(O[H])O[H])O[C@@]([H])(n2c([H])c([H])c(=O)n([H])c2=O)[C@]1([H])O[H]


 36 37  0  0  0  0  0  0  0  0999 V2000
    3.6128  -51.1045  -22.8992 O   0  0  0  0  0  0  0  0  0  0  0  0
    2.4994  -51.3622  -23.6955 C   0  0  0  0  0  0  0  0  0  0  0  0
    2.9248  -51.9809  -25.0638 C   0  0  0  0  0  0  0  0  0  0  0  0
    4.1560  -52.6148  -24.7376 O   0  0  0  0  0  0  0  0  0  0  0  0
    1.8267  -52.9269  -25.2775 C   0  0  0  0  0  0  0  0  0  0  0  0
    0.8726  -52.8108  -24.2270 O   0  0  0  0  0  0  0  0  0  0  0  0
    1.7158  -52.5447  -23.2095 C   0  0  0  0  0  0  0  0  0  0  0  0
    3.6531  -50.1219  -22.7866 H   0  0  0  0  0  0  0  0  0  0  0  0
    3.9587  -53.5837  -24.6584 H   0  0  0  0  0  0  0  0  0  0  0  0
    1.1445  -52.9073  -26.5515 N   0  0  0  0  0  0  0  0  0  0  0  0
   -0.1625  -52.5956  -26.5832 C   0  0  0  0  0  0  0  0  0  0  0  0
   -0.9134  -52.5887  -27.7420 C   0  0  0  0  0  0  0  0  0  0  0  0
   -0.2217  -52.9279  -28.8872 C   0  0  0  0  0  0  0  0  0  0  0  0
   -0.8472  -52.9353  -29.9915 O   0  0  0  0  0  0  0  0  0  0  0  0
    1.0723  -53.2316  -28.8374 N   0  0  0  0  0  0  0  0  0  0  0  0
    1.7781  -53.2265  -27.6806 C   0  0  0  0  0  0  0  0  0  0  0  0
    3.0288  -53.5325  -27.7103 O   0  0  0  0  0  0  0  0  0  0  0  0
    1.5466  -53.5162  -29.6843 H   0  0  0  0  0  0  0  0  0  0  0  0
    1.1970  -52.4956  -21.8080 C   0  0  0  0  0  0  0  0  0  0  0  0
    1.2860  -51.0805  -21.5142 O   0  0  0  0  0  0  0  0  0  0  0  0
    1.4307  -50.9722  -19.8140 P   0  0  0  0  0  0  0  0  0  0  0  0
   -0.0480  -51.7054  -19.2648 O   0  0  0  0  0  0  0  0  0  0  0  0
    2.5868  -51.7622  -19.2951 O   0  0  0  0  0  0  0  0  0  0  0  0
   -0.0777  -51.8607  -18.3376 H   0  0  0  0  0  0  0  0  0  0  0  0
    1.4758  -49.4310  -19.2125 O   0  0  0  0  0  0  0  0  0  0  0  0
    2.6302  -48.5022  -20.0640 P   0  0  0  0  0  0  0  0  0  0  0  0
    3.9265  -49.4252  -20.5854 O   0  0  0  0  0  0  0  0  0  0  0  0
    3.1375  -47.4379  -19.1417 O   0  0  0  0  0  0  0  0  0  0  0  0
    3.7929  -49.8169  -21.4884 H   0  0  0  0  0  0  0  0  0  0  0  0
    1.8368  -47.7513  -21.3637 O   0  0  0  0  0  0  0  0  0  0  0  0
    2.9674  -47.1526  -22.4550 P   0  0  0  0  0  0  0  0  0  0  0  0
    4.3172  -46.5216  -21.6111 O   0  0  0  0  0  0  0  0  0  0  0  0
    2.2379  -45.8979  -23.3195 O   0  0  0  0  0  0  0  0  0  0  0  0
    3.4298  -48.2051  -23.4363 O   0  0  0  0  0  0  0  0  0  0  0  0
    4.6426  -47.2028  -20.9680 H   0  0  0  0  0  0  0  0  0  0  0  0
    2.0407  -46.1544  -24.2575 H   0  0  0  0  0  0  0  0  0  0  0  0
  1  2  1  0  0  0
  2  3  1  0  0  0
  3  4  1  0  0  0
  3  5  1  0  0  0
  5  6  1  0  0  0
  6  7  1  0  0  0
  7 19  1  0  0  0
 19 20  1  0  0  0
 20 21  1  0  0  0
 21 22  1  0  0  0
 21 23  2  0  0  0
 21 25  1  0  0  0
 25 26  1  0  0  0
 26 27  1  0  0  0
 26 28  2  0  0  0
 26 30  1  0  0  0
 30 31  1  0  0  0
 31 32  1  0  0  0
 31 33  1  0  0  0
 31 34  2  0  0  0
  5 10  1  0  0  0
 10 11  1  0  0  0
 11 12  2  0  0  0
 12 13  1  0  0  0
 13 14  2  0  0  0
 13 15  1  0  0  0
 15 16  1  0  0  0
 16 17  2  0  0  0
  7  2  1  0  0  0
 16 10  1  0  0  0
  1  8  1  0  0  0
  4  9  1  0  0  0
 22 24  1  0  0  0
 27 29  1  0  0  0
 32 35  1  0  0  0
 33 36  1  0  0  0
 15 18  1  0  0  0
M  END
> <minimizedAffinity>
-6.30570

> <CNNscore>
0.1813681275

> <CNNaffinity>
4.6833992004

> <CNN_VS>
0.8494193554

> <CNNaffinity_variance>
0.3083099425

$$$$
[H]c1nc(N([H])c2c([H])c([H])c([N+](=O)[O-])c([H])c2OC([H])([H])[H])nc(N([H])c2c([H])c([H])c([H])c([H])c2S(=O)(=O)C([H])(C([H])([H])[H])C([H])([H])[H])c1Cl


 34 36  0  0  0  0  0  0  0  0999 V2000
   -1.0913  -53.6916  -20.4235 C   0  0  0  0  0  0  0  0  0  0  0  0
   -1.5986  -54.5825  -21.2629 N   0  0  0  0  0  0  0  0  0  0  0  0
   -1.3103  -54.6409  -22.5694 C   0  0  0  0  0  0  0  0  0  0  0  0
   -0.4358  -53.7284  -23.0914 C   0  0  0  0  0  0  0  0  0  0  0  0
   -0.0614  -53.8069  -24.7974 Cl  0  0  0  0  0  0  0  0  0  0  0  0
    0.1332  -52.7622  -22.2549 C   0  0  0  0  0  0  0  0  0  0  0  0
   -0.2224  -52.7985  -20.9853 N   0  0  0  0  0  0  0  0  0  0  0  0
   -1.3658  -53.5883  -19.0289 N   0  0  0  0  0  0  0  0  0  0  0  0
   -1.9254  -54.3801  -18.5802 H   0  0  0  0  0  0  0  0  0  0  0  0
   -1.7618  -52.2669  -17.0716 C   0  0  0  0  0  0  0  0  0  0  0  0
   -1.4503  -51.2532  -16.1929 C   0  0  0  0  0  0  0  0  0  0  0  0
   -0.3573  -50.4518  -16.3551 C   0  0  0  0  0  0  0  0  0  0  0  0
    0.4329  -50.6943  -17.4403 C   0  0  0  0  0  0  0  0  0  0  0  0
    0.1210  -51.7224  -18.3357 C   0  0  0  0  0  0  0  0  0  0  0  0
   -0.9641  -52.5372  -18.1974 C   0  0  0  0  0  0  0  0  0  0  0  0
   -0.1042  -49.4310  -15.4090 N   0  0  0  0  0  0  0  0  0  0  0  0
   -0.8953  -48.3196  -15.3523 O   0  0  0  0  0  0  0  0  0  0  0  0
    0.8433  -49.5203  -14.6067 O   0  0  0  0  0  0  0  0  0  0  0  0
   -4.0181  -52.5647  -16.2148 C   0  0  0  0  0  0  0  0  0  0  0  0
   -2.8805  -53.0577  -16.8710 O   0  0  0  0  0  0  0  0  0  0  0  0
    1.0329  -51.8275  -22.8198 N   0  0  0  0  0  0  0  0  0  0  0  0
    1.5062  -52.1842  -23.7137 H   0  0  0  0  0  0  0  0  0  0  0  0
    1.3978  -50.5526  -22.4065 C   0  0  0  0  0  0  0  0  0  0  0  0
    0.7148  -49.8179  -21.4728 C   0  0  0  0  0  0  0  0  0  0  0  0
    1.1213  -48.5319  -21.0668 C   0  0  0  0  0  0  0  0  0  0  0  0
    2.2444  -47.9701  -21.6143 C   0  0  0  0  0  0  0  0  0  0  0  0
    2.9456  -48.6907  -22.5542 C   0  0  0  0  0  0  0  0  0  0  0  0
    2.5336  -49.9482  -22.9406 C   0  0  0  0  0  0  0  0  0  0  0  0
    3.4633  -50.7762  -24.1276 S   0  0  0  0  0  0  0  0  0  0  0  0
    2.6335  -51.5443  -25.1147 O   0  0  0  0  0  0  0  0  0  0  0  0
    4.3621  -49.8529  -24.9365 O   0  0  0  0  0  0  0  0  0  0  0  0
    4.5048  -52.0448  -23.3729 C   0  0  0  0  0  0  0  0  0  0  0  0
    5.7864  -52.0181  -24.2261 C   0  0  0  0  0  0  0  0  0  0  0  0
    4.8540  -51.7347  -21.9620 C   0  0  0  0  0  0  0  0  0  0  0  0
 19 20  1  0  0  0
 20 10  1  0  0  0
 10 11  2  0  0  0
 11 12  1  0  0  0
 12 13  2  0  0  0
 13 14  1  0  0  0
 14 15  2  0  0  0
 15  8  1  0  0  0
  8  1  1  0  0  0
  1  2  2  0  0  0
  2  3  1  0  0  0
  3  4  2  0  0  0
  4  5  1  0  0  0
  4  6  1  0  0  0
  6 21  1  0  0  0
 21 23  1  0  0  0
 23 24  2  0  0  0
 24 25  1  0  0  0
 25 26  2  0  0  0
 26 27  1  0  0  0
 27 28  2  0  0  0
 28 29  1  0  0  0
 29 30  2  0  0  0
 29 31  2  0  0  0
 29 32  1  0  0  0
 32 33  1  0  0  0
 32 34  1  0  0  0
  6  7  2  0  0  0
 12 16  1  0  0  0
 16 17  1  0  0  0
 16 18  2  0  0  0
 15 10  1  0  0  0
  7  1  1  0  0  0
 28 23  1  0  0  0
  8  9  1  0  0  0
 21 22  1  0  0  0
M  CHG 1  16   1
M  CHG 1  17  -1
M  END
> <minimizedAffinity>
-7.65548

> <CNNscore>
0.8697748184

> <CNNaffinity>
7.3768181801

> <CNN_VS>
6.4161705971

> <CNNaffinity_variance>
0.0245010201

$$$$
[H]c1nc(N([H])c2c([H])c([H])c([N+](=O)[O-])c([H])c2OC([H])([H])[H])nc(N([H])c2c([H])c([H])c([H])c([H])c2S(=O)(=O)C([H])(C([H])([H])[H])C([H])([H])[H])c1Cl


 34 36  0  0  0  0  0  0  0  0999 V2000
   -0.9308  -53.2442  -19.1385 C   0  0  0  0  0  0  0  0  0  0  0  0
   -1.8103  -53.8410  -19.9296 N   0  0  0  0  0  0  0  0  0  0  0  0
   -1.7429  -53.8472  -21.2671 C   0  0  0  0  0  0  0  0  0  0  0  0
   -0.7038  -53.1997  -21.8763 C   0  0  0  0  0  0  0  0  0  0  0  0
   -0.6184  -53.2095  -23.6226 Cl  0  0  0  0  0  0  0  0  0  0  0  0
    0.2573  -52.5505  -21.0942 C   0  0  0  0  0  0  0  0  0  0  0  0
    0.0911  -52.6091  -19.7870 N   0  0  0  0  0  0  0  0  0  0  0  0
   -0.9584  -53.2091  -17.7142 N   0  0  0  0  0  0  0  0  0  0  0  0
   -0.2496  -53.8176  -17.1956 H   0  0  0  0  0  0  0  0  0  0  0  0
   -1.3104  -51.3003  -16.3118 C   0  0  0  0  0  0  0  0  0  0  0  0
   -2.0932  -50.4834  -15.5264 C   0  0  0  0  0  0  0  0  0  0  0  0
   -3.4177  -50.7283  -15.3055 C   0  0  0  0  0  0  0  0  0  0  0  0
   -3.9512  -51.8334  -15.9016 C   0  0  0  0  0  0  0  0  0  0  0  0
   -3.1606  -52.6661  -16.7000 C   0  0  0  0  0  0  0  0  0  0  0  0
   -1.8357  -52.4448  -16.9370 C   0  0  0  0  0  0  0  0  0  0  0  0
   -4.1555  -49.8420  -14.4861 N   0  0  0  0  0  0  0  0  0  0  0  0
   -3.5856  -48.6990  -14.0035 O   0  0  0  0  0  0  0  0  0  0  0  0
   -5.3395  -50.0814  -14.1854 O   0  0  0  0  0  0  0  0  0  0  0  0
    0.4435  -49.8221  -17.1194 C   0  0  0  0  0  0  0  0  0  0  0  0
    0.0300  -51.0165  -16.5109 O   0  0  0  0  0  0  0  0  0  0  0  0
    1.3210  -51.8853  -21.7486 N   0  0  0  0  0  0  0  0  0  0  0  0
    2.0104  -52.5562  -22.2229 H   0  0  0  0  0  0  0  0  0  0  0  0
    1.6119  -50.5322  -21.8660 C   0  0  0  0  0  0  0  0  0  0  0  0
    1.0477  -49.5506  -21.0939 C   0  0  0  0  0  0  0  0  0  0  0  0
    1.3763  -48.1878  -21.2310 C   0  0  0  0  0  0  0  0  0  0  0  0
    2.2967  -47.8022  -22.1696 C   0  0  0  0  0  0  0  0  0  0  0  0
    2.8758  -48.7720  -22.9562 C   0  0  0  0  0  0  0  0  0  0  0  0
    2.5425  -50.1014  -22.8090 C   0  0  0  0  0  0  0  0  0  0  0  0
    3.3073  -51.2473  -23.8390 S   0  0  0  0  0  0  0  0  0  0  0  0
    2.4049  -52.3666  -24.2701 O   0  0  0  0  0  0  0  0  0  0  0  0
    3.8735  -50.6284  -25.1084 O   0  0  0  0  0  0  0  0  0  0  0  0
    4.6548  -52.0953  -22.9852 C   0  0  0  0  0  0  0  0  0  0  0  0
    5.6924  -52.3400  -24.0963 C   0  0  0  0  0  0  0  0  0  0  0  0
    5.2714  -51.2630  -21.9194 C   0  0  0  0  0  0  0  0  0  0  0  0
 19 20  1  0  0  0
 20 10  1  0  0  0
 10 11  2  0  0  0
 11 12  1  0  0  0
 12 13  2  0  0  0
 13 14  1  0  0  0
 14 15  2  0  0  0
 15  8  1  0  0  0
  8  1  1  0  0  0
  1  2  2  0  0  0
  2  3  1  0  0  0
  3  4  2  0  0  0
  4  5  1  0  0  0
  4  6  1  0  0  0
  6 21  1  0  0  0
 21 23  1  0  0  0
 23 24  2  0  0  0
 24 25  1  0  0  0
 25 26  2  0  0  0
 26 27  1  0  0  0
 27 28  2  0  0  0
 28 29  1  0  0  0
 29 30  2  0  0  0
 29 31  2  0  0  0
 29 32  1  0  0  0
 32 33  1  0  0  0
 32 34  1  0  0  0
  6  7  2  0  0  0
 12 16  1  0  0  0
 16 17  1  0  0  0
 16 18  2  0  0  0
 15 10  1  0  0  0
  7  1  1  0  0  0
 28 23  1  0  0  0
  8  9  1  0  0  0
 21 22  1  0  0  0
M  CHG 1  16   1
M  CHG 1  17  -1
M  END
> <minimizedAffinity>
-7.58299

> <CNNscore>
0.7578096986

> <CNNaffinity>
7.1826004982

> <CNN_VS>
5.4430441856

> <CNNaffinity_variance>
0.0672256872

$$$$
[H]c1nc(N([H])c2c([H])c([H])c([N+](=O)[O-])c([H])c2OC([H])([H])[H])nc(N([H])c2c([H])c([H])c([H])c([H])c2S(=O)(=O)C([H])(C([H])([H])[H])C([H])([H])[H])c1Cl


 34 36  0  0  0  0  0  0  0  0999 V2000
   -0.6045  -53.1889  -19.6420 C   0  0  0  0  0  0  0  0  0  0  0  0
   -1.3560  -54.0356  -20.3304 N   0  0  0  0  0  0  0  0  0  0  0  0
   -1.4036  -54.0902  -21.6677 C   0  0  0  0  0  0  0  0  0  0  0  0
   -0.6320  -53.2219  -22.3892 C   0  0  0  0  0  0  0  0  0  0  0  0
   -0.6962  -53.2953  -24.1349 Cl  0  0  0  0  0  0  0  0  0  0  0  0
    0.1830  -52.3035  -21.7189 C   0  0  0  0  0  0  0  0  0  0  0  0
    0.1506  -52.3390  -20.4008 N   0  0  0  0  0  0  0  0  0  0  0  0
   -0.5191  -53.0917  -18.2229 N   0  0  0  0  0  0  0  0  0  0  0  0
    0.4064  -53.3707  -17.7679 H   0  0  0  0  0  0  0  0  0  0  0  0
   -1.2506  -51.6079  -16.4915 C   0  0  0  0  0  0  0  0  0  0  0  0
   -2.1932  -51.1137  -15.6174 C   0  0  0  0  0  0  0  0  0  0  0  0
   -3.4634  -51.6091  -15.5513 C   0  0  0  0  0  0  0  0  0  0  0  0
   -3.7741  -52.6322  -16.3985 C   0  0  0  0  0  0  0  0  0  0  0  0
   -2.8205  -53.1377  -17.2880 C   0  0  0  0  0  0  0  0  0  0  0  0
   -1.5453  -52.6615  -17.3746 C   0  0  0  0  0  0  0  0  0  0  0  0
   -4.3750  -51.0481  -14.6264 N   0  0  0  0  0  0  0  0  0  0  0  0
   -5.4075  -51.7887  -14.1266 O   0  0  0  0  0  0  0  0  0  0  0  0
   -4.2591  -49.8685  -14.2462 O   0  0  0  0  0  0  0  0  0  0  0  0
    0.8376  -51.0396  -15.3824 C   0  0  0  0  0  0  0  0  0  0  0  0
    0.0277  -51.0772  -16.5272 O   0  0  0  0  0  0  0  0  0  0  0  0
    0.9696  -51.4138  -22.4882 N   0  0  0  0  0  0  0  0  0  0  0  0
    0.4364  -50.5347  -22.7935 H   0  0  0  0  0  0  0  0  0  0  0  0
    2.2911  -51.4990  -22.9076 C   0  0  0  0  0  0  0  0  0  0  0  0
    2.7703  -52.4569  -23.7624 C   0  0  0  0  0  0  0  0  0  0  0  0
    4.1153  -52.5056  -24.1780 C   0  0  0  0  0  0  0  0  0  0  0  0
    5.0015  -51.5658  -23.7218 C   0  0  0  0  0  0  0  0  0  0  0  0
    4.5414  -50.5944  -22.8620 C   0  0  0  0  0  0  0  0  0  0  0  0
    3.2217  -50.5616  -22.4650 C   0  0  0  0  0  0  0  0  0  0  0  0
    2.7322  -49.3183  -21.3817 S   0  0  0  0  0  0  0  0  0  0  0  0
    3.6792  -48.1549  -21.3324 O   0  0  0  0  0  0  0  0  0  0  0  0
    1.3578  -48.7503  -21.7027 O   0  0  0  0  0  0  0  0  0  0  0  0
    2.7034  -49.9128  -19.6760 C   0  0  0  0  0  0  0  0  0  0  0  0
    4.1585  -49.7357  -19.2045 C   0  0  0  0  0  0  0  0  0  0  0  0
    1.8088  -49.1080  -18.8037 C   0  0  0  0  0  0  0  0  0  0  0  0
 19 20  1  0  0  0
 20 10  1  0  0  0
 10 11  2  0  0  0
 11 12  1  0  0  0
 12 13  2  0  0  0
 13 14  1  0  0  0
 14 15  2  0  0  0
 15  8  1  0  0  0
  8  1  1  0  0  0
  1  2  2  0  0  0
  2  3  1  0  0  0
  3  4  2  0  0  0
  4  5  1  0  0  0
  4  6  1  0  0  0
  6 21  1  0  0  0
 21 23  1  0  0  0
 23 24  2  0  0  0
 24 25  1  0  0  0
 25 26  2  0  0  0
 26 27  1  0  0  0
 27 28  2  0  0  0
 28 29  1  0  0  0
 29 30  2  0  0  0
 29 31  2  0  0  0
 29 32  1  0  0  0
 32 33  1  0  0  0
 32 34  1  0  0  0
  6  7  2  0  0  0
 12 16  1  0  0  0
 16 17  1  0  0  0
 16 18  2  0  0  0
 15 10  1  0  0  0
  7  1  1  0  0  0
 28 23  1  0  0  0
  8  9  1  0  0  0
 21 22  1  0  0  0
M  CHG 1  16   1
M  CHG 1  17  -1
M  END
> <minimizedAffinity>
-7.09056

> <CNNscore>
0.6998218298

> <CNNaffinity>
7.2973604202

> <CNN_VS>
5.1068520546

> <CNNaffinity_variance>
0.1213613003

$$$$
[H]c1nc(N([H])c2c([H])c([H])c([N+](=O)[O-])c([H])c2OC([H])([H])[H])nc(N([H])c2c([H])c([H])c([H])c([H])c2S(=O)(=O)C([H])(C([H])([H])[H])C([H])([H])[H])c1Cl


 34 36  0  0  0  0  0  0  0  0999 V2000
   -0.9115  -53.1988  -21.6102 C   0  0  0  0  0  0  0  0  0  0  0  0
   -1.0481  -54.5120  -21.7214 N   0  0  0  0  0  0  0  0  0  0  0  0
   -0.9373  -55.1897  -22.8712 C   0  0  0  0  0  0  0  0  0  0  0  0
   -0.6650  -54.4977  -24.0188 C   0  0  0  0  0  0  0  0  0  0  0  0
   -0.5209  -55.3850  -25.5184 Cl  0  0  0  0  0  0  0  0  0  0  0  0
   -0.5099  -53.1084  -23.9657 C   0  0  0  0  0  0  0  0  0  0  0  0
   -0.6404  -52.5457  -22.7799 N   0  0  0  0  0  0  0  0  0  0  0  0
   -1.0199  -52.4334  -20.4131 N   0  0  0  0  0  0  0  0  0  0  0  0
   -1.8391  -52.6538  -19.7636 H   0  0  0  0  0  0  0  0  0  0  0  0
    0.1927  -51.3544  -18.6526 C   0  0  0  0  0  0  0  0  0  0  0  0
    1.0470  -50.3910  -18.1636 C   0  0  0  0  0  0  0  0  0  0  0  0
    1.6177  -49.4429  -18.9627 C   0  0  0  0  0  0  0  0  0  0  0  0
    1.3067  -49.4827  -20.2903 C   0  0  0  0  0  0  0  0  0  0  0  0
    0.4398  -50.4589  -20.7918 C   0  0  0  0  0  0  0  0  0  0  0  0
   -0.1439  -51.4171  -20.0162 C   0  0  0  0  0  0  0  0  0  0  0  0
    2.4854  -48.4862  -18.3855 N   0  0  0  0  0  0  0  0  0  0  0  0
    2.9662  -48.6539  -17.1187 O   0  0  0  0  0  0  0  0  0  0  0  0
    2.8312  -47.4704  -19.0164 O   0  0  0  0  0  0  0  0  0  0  0  0
   -1.1546  -51.9248  -16.7102 C   0  0  0  0  0  0  0  0  0  0  0  0
   -0.3656  -52.2989  -17.8081 O   0  0  0  0  0  0  0  0  0  0  0  0
   -0.2316  -52.4152  -25.1674 N   0  0  0  0  0  0  0  0  0  0  0  0
   -0.8138  -51.5220  -25.2842 H   0  0  0  0  0  0  0  0  0  0  0  0
    0.6510  -52.7044  -26.2002 C   0  0  0  0  0  0  0  0  0  0  0  0
    0.2881  -53.2862  -27.3867 C   0  0  0  0  0  0  0  0  0  0  0  0
    1.2082  -53.5533  -28.4191 C   0  0  0  0  0  0  0  0  0  0  0  0
    2.5283  -53.2263  -28.2538 C   0  0  0  0  0  0  0  0  0  0  0  0
    2.9147  -52.6410  -27.0695 C   0  0  0  0  0  0  0  0  0  0  0  0
    2.0011  -52.3869  -26.0691 C   0  0  0  0  0  0  0  0  0  0  0  0
    2.5702  -51.6604  -24.6175 S   0  0  0  0  0  0  0  0  0  0  0  0
    1.7649  -50.4706  -24.1832 O   0  0  0  0  0  0  0  0  0  0  0  0
    2.6014  -52.6215  -23.4384 O   0  0  0  0  0  0  0  0  0  0  0  0
    4.2339  -50.9896  -24.8319 C   0  0  0  0  0  0  0  0  0  0  0  0
    3.9989  -49.4752  -24.9810 C   0  0  0  0  0  0  0  0  0  0  0  0
    5.1058  -51.2322  -23.6530 C   0  0  0  0  0  0  0  0  0  0  0  0
 19 20  1  0  0  0
 20 10  1  0  0  0
 10 11  2  0  0  0
 11 12  1  0  0  0
 12 13  2  0  0  0
 13 14  1  0  0  0
 14 15  2  0  0  0
 15  8  1  0  0  0
  8  1  1  0  0  0
  1  2  2  0  0  0
  2  3  1  0  0  0
  3  4  2  0  0  0
  4  5  1  0  0  0
  4  6  1  0  0  0
  6 21  1  0  0  0
 21 23  1  0  0  0
 23 24  2  0  0  0
 24 25  1  0  0  0
 25 26  2  0  0  0
 26 27  1  0  0  0
 27 28  2  0  0  0
 28 29  1  0  0  0
 29 30  2  0  0  0
 29 31  2  0  0  0
 29 32  1  0  0  0
 32 33  1  0  0  0
 32 34  1  0  0  0
  6  7  2  0  0  0
 12 16  1  0  0  0
 16 17  1  0  0  0
 16 18  2  0  0  0
 15 10  1  0  0  0
  7  1  1  0  0  0
 28 23  1  0  0  0
  8  9  1  0  0  0
 21 22  1  0  0  0
M  CHG 1  16   1
M  CHG 1  17  -1
M  END
> <minimizedAffinity>
-6.99541

> <CNNscore>
0.6382033229

> <CNNaffinity>
7.4033203125

> <CNN_VS>
4.7248234749

> <CNNaffinity_variance>
0.2519305348

$$$$
[H]c1nc(N([H])c2c([H])c([H])c([N+](=O)[O-])c([H])c2OC([H])([H])[H])nc(N([H])c2c([H])c([H])c([H])c([H])c2S(=O)(=O)C([H])(C([H])([H])[H])C([H])([H])[H])c1Cl


 34 36  0  0  0  0  0  0  0  0999 V2000
   -0.7087  -53.2219  -19.6711 C   0  0  0  0  0  0  0  0  0  0  0  0
   -1.4479  -54.0290  -20.4179 N   0  0  0  0  0  0  0  0  0  0  0  0
   -1.4430  -54.0365  -21.7571 C   0  0  0  0  0  0  0  0  0  0  0  0
   -0.6269  -53.1598  -22.4167 C   0  0  0  0  0  0  0  0  0  0  0  0
   -0.6226  -53.1718  -24.1651 Cl  0  0  0  0  0  0  0  0  0  0  0  0
    0.1779  -52.2817  -21.6830 C   0  0  0  0  0  0  0  0  0  0  0  0
    0.0922  -52.3619  -20.3692 N   0  0  0  0  0  0  0  0  0  0  0  0
   -0.6782  -53.1753  -18.2472 N   0  0  0  0  0  0  0  0  0  0  0  0
   -0.6358  -54.1080  -17.7277 H   0  0  0  0  0  0  0  0  0  0  0  0
   -1.7966  -51.8313  -16.6111 C   0  0  0  0  0  0  0  0  0  0  0  0
   -1.9088  -50.7184  -15.8074 C   0  0  0  0  0  0  0  0  0  0  0  0
   -0.9715  -49.7262  -15.7932 C   0  0  0  0  0  0  0  0  0  0  0  0
    0.1032  -49.8776  -16.6198 C   0  0  0  0  0  0  0  0  0  0  0  0
    0.2219  -51.0057  -17.4378 C   0  0  0  0  0  0  0  0  0  0  0  0
   -0.6993  -52.0110  -17.4716 C   0  0  0  0  0  0  0  0  0  0  0  0
   -1.1579  -48.6137  -14.9396 N   0  0  0  0  0  0  0  0  0  0  0  0
   -0.1928  -47.6552  -14.8206 O   0  0  0  0  0  0  0  0  0  0  0  0
   -2.2035  -48.4811  -14.2774 O   0  0  0  0  0  0  0  0  0  0  0  0
   -4.0894  -52.5354  -16.2100 C   0  0  0  0  0  0  0  0  0  0  0  0
   -2.7701  -52.8156  -16.5957 O   0  0  0  0  0  0  0  0  0  0  0  0
    1.0114  -51.3823  -22.3890 N   0  0  0  0  0  0  0  0  0  0  0  0
    0.5295  -50.4522  -22.6193 H   0  0  0  0  0  0  0  0  0  0  0  0
    2.3229  -51.5119  -22.8277 C   0  0  0  0  0  0  0  0  0  0  0  0
    2.7489  -52.4596  -23.7212 C   0  0  0  0  0  0  0  0  0  0  0  0
    4.0856  -52.5538  -24.1552 C   0  0  0  0  0  0  0  0  0  0  0  0
    5.0184  -51.6714  -23.6778 C   0  0  0  0  0  0  0  0  0  0  0  0
    4.6122  -50.7113  -22.7791 C   0  0  0  0  0  0  0  0  0  0  0  0
    3.2999  -50.6333  -22.3646 C   0  0  0  0  0  0  0  0  0  0  0  0
    2.8791  -49.4083  -21.2327 S   0  0  0  0  0  0  0  0  0  0  0  0
    1.7618  -48.5190  -21.6949 O   0  0  0  0  0  0  0  0  0  0  0  0
    2.4657  -49.9613  -19.8769 O   0  0  0  0  0  0  0  0  0  0  0  0
    4.2510  -48.2625  -20.9708 C   0  0  0  0  0  0  0  0  0  0  0  0
    3.5589  -46.8954  -20.8181 C   0  0  0  0  0  0  0  0  0  0  0  0
    5.0176  -48.5599  -19.7328 C   0  0  0  0  0  0  0  0  0  0  0  0
 19 20  1  0  0  0
 20 10  1  0  0  0
 10 11  2  0  0  0
 11 12  1  0  0  0
 12 13  2  0  0  0
 13 14  1  0  0  0
 14 15  2  0  0  0
 15  8  1  0  0  0
  8  1  1  0  0  0
  1  2  2  0  0  0
  2  3  1  0  0  0
  3  4  2  0  0  0
  4  5  1  0  0  0
  4  6  1  0  0  0
  6 21  1  0  0  0
 21 23  1  0  0  0
 23 24  2  0  0  0
 24 25  1  0  0  0
 25 26  2  0  0  0
 26 27  1  0  0  0
 27 28  2  0  0  0
 28 29  1  0  0  0
 29 30  2  0  0  0
 29 31  2  0  0  0
 29 32  1  0  0  0
 32 33  1  0  0  0
 32 34  1  0  0  0
  6  7  2  0  0  0
 12 16  1  0  0  0
 16 17  1  0  0  0
 16 18  2  0  0  0
 15 10  1  0  0  0
  7  1  1  0  0  0
 28 23  1  0  0  0
  8  9  1  0  0  0
 21 22  1  0  0  0
M  CHG 1  16   1
M  CHG 1  17  -1
M  END
> <minimizedAffinity>
-6.67398

> <CNNscore>
0.5972149968

> <CNNaffinity>
7.0649094582

> <CNN_VS>
4.2192697525

> <CNNaffinity_variance>
0.1216009408

$$$$
[H]c1nc(N([H])c2c([H])c([H])c([N+](=O)[O-])c([H])c2OC([H])([H])[H])nc(N([H])c2c([H])c([H])c([H])c([H])c2S(=O)(=O)C([H])(C([H])([H])[H])C([H])([H])[H])c1Cl


 34 36  0  0  0  0  0  0  0  0999 V2000
   -0.8606  -53.3621  -19.3762 C   0  0  0  0  0  0  0  0  0  0  0  0
   -1.7374  -53.9941  -20.1426 N   0  0  0  0  0  0  0  0  0  0  0  0
   -1.6830  -54.0338  -21.4801 C   0  0  0  0  0  0  0  0  0  0  0  0
   -0.6614  -53.3846  -22.1164 C   0  0  0  0  0  0  0  0  0  0  0  0
   -0.5929  -53.4381  -23.8626 Cl  0  0  0  0  0  0  0  0  0  0  0  0
    0.2960  -52.6990  -21.3611 C   0  0  0  0  0  0  0  0  0  0  0  0
    0.1437  -52.7266  -20.0513 N   0  0  0  0  0  0  0  0  0  0  0  0
   -0.8749  -53.2906  -17.9530 N   0  0  0  0  0  0  0  0  0  0  0  0
   -0.0495  -53.7259  -17.4327 H   0  0  0  0  0  0  0  0  0  0  0  0
   -1.5146  -51.5940  -16.3889 C   0  0  0  0  0  0  0  0  0  0  0  0
   -2.4304  -50.9427  -15.5927 C   0  0  0  0  0  0  0  0  0  0  0  0
   -3.7395  -51.3223  -15.5191 C   0  0  0  0  0  0  0  0  0  0  0  0
   -4.1179  -52.3916  -16.2770 C   0  0  0  0  0  0  0  0  0  0  0  0
   -3.1918  -53.0565  -17.0870 C   0  0  0  0  0  0  0  0  0  0  0  0
   -1.8789  -52.6983  -17.1791 C   0  0  0  0  0  0  0  0  0  0  0  0
   -4.6199  -50.6025  -14.6777 N   0  0  0  0  0  0  0  0  0  0  0  0
   -5.4289  -51.2547  -13.7920 O   0  0  0  0  0  0  0  0  0  0  0  0
   -4.6789  -49.3600  -14.7236 O   0  0  0  0  0  0  0  0  0  0  0  0
    0.5780  -51.0611  -15.2704 C   0  0  0  0  0  0  0  0  0  0  0  0
   -0.1951  -51.1771  -16.4352 O   0  0  0  0  0  0  0  0  0  0  0  0
    1.3415  -52.0328  -22.0433 N   0  0  0  0  0  0  0  0  0  0  0  0
    1.1592  -51.9268  -23.0949 H   0  0  0  0  0  0  0  0  0  0  0  0
    2.5427  -51.5120  -21.5795 C   0  0  0  0  0  0  0  0  0  0  0  0
    2.7770  -51.1499  -20.2787 C   0  0  0  0  0  0  0  0  0  0  0  0
    4.0132  -50.6370  -19.8397 C   0  0  0  0  0  0  0  0  0  0  0  0
    5.0409  -50.4845  -20.7326 C   0  0  0  0  0  0  0  0  0  0  0  0
    4.8272  -50.8420  -22.0445 C   0  0  0  0  0  0  0  0  0  0  0  0
    3.6109  -51.3421  -22.4574 C   0  0  0  0  0  0  0  0  0  0  0  0
    3.4262  -51.7561  -24.1168 S   0  0  0  0  0  0  0  0  0  0  0  0
    4.7207  -51.7954  -24.8756 O   0  0  0  0  0  0  0  0  0  0  0  0
    2.7549  -53.1051  -24.3270 O   0  0  0  0  0  0  0  0  0  0  0  0
    2.4579  -50.5103  -24.9966 C   0  0  0  0  0  0  0  0  0  0  0  0
    3.4698  -49.8884  -25.9766 C   0  0  0  0  0  0  0  0  0  0  0  0
    1.3328  -51.0991  -25.7687 C   0  0  0  0  0  0  0  0  0  0  0  0
 19 20  1  0  0  0
 20 10  1  0  0  0
 10 11  2  0  0  0
 11 12  1  0  0  0
 12 13  2  0  0  0
 13 14  1  0  0  0
 14 15  2  0  0  0
 15  8  1  0  0  0
  8  1  1  0  0  0
  1  2  2  0  0  0
  2  3  1  0  0  0
  3  4  2  0  0  0
  4  5  1  0  0  0
  4  6  1  0  0  0
  6 21  1  0  0  0
 21 23  1  0  0  0
 23 24  2  0  0  0
 24 25  1  0  0  0
 25 26  2  0  0  0
 26 27  1  0  0  0
 27 28  2  0  0  0
 28 29  1  0  0  0
 29 30  2  0  0  0
 29 31  2  0  0  0
 29 32  1  0  0  0
 32 33  1  0  0  0
 32 34  1  0  0  0
  6  7  2  0  0  0
 12 16  1  0  0  0
 16 17  1  0  0  0
 16 18  2  0  0  0
 15 10  1  0  0  0
  7  1  1  0  0  0
 28 23  1  0  0  0
  8  9  1  0  0  0
 21 22  1  0  0  0
M  CHG 1  16   1
M  CHG 1  17  -1
M  END
> <minimizedAffinity>
-7.24373

> <CNNscore>
0.5741910934

> <CNNaffinity>
7.0780630112

> <CNN_VS>
4.0641608238

> <CNNaffinity_variance>
0.1174942255

$$$$
[H]c1nc(N([H])c2c([H])c([H])c([N+](=O)[O-])c([H])c2OC([H])([H])[H])nc(N([H])c2c([H])c([H])c([H])c([H])c2S(=O)(=O)C([H])(C([H])([H])[H])C([H])([H])[H])c1Cl


 34 36  0  0  0  0  0  0  0  0999 V2000
   -0.6617  -53.3312  -19.5133 C   0  0  0  0  0  0  0  0  0  0  0  0
   -1.5329  -53.9791  -20.2726 N   0  0  0  0  0  0  0  0  0  0  0  0
   -1.4979  -54.0050  -21.6112 C   0  0  0  0  0  0  0  0  0  0  0  0
   -0.5035  -53.3230  -22.2563 C   0  0  0  0  0  0  0  0  0  0  0  0
   -0.4602  -53.3585  -24.0038 Cl  0  0  0  0  0  0  0  0  0  0  0  0
    0.4467  -52.6192  -21.5089 C   0  0  0  0  0  0  0  0  0  0  0  0
    0.3151  -52.6630  -20.1972 N   0  0  0  0  0  0  0  0  0  0  0  0
   -0.6562  -53.2733  -18.0895 N   0  0  0  0  0  0  0  0  0  0  0  0
    0.1829  -53.7015  -17.5853 H   0  0  0  0  0  0  0  0  0  0  0  0
   -1.3108  -51.5683  -16.5408 C   0  0  0  0  0  0  0  0  0  0  0  0
   -2.2253  -50.9349  -15.7287 C   0  0  0  0  0  0  0  0  0  0  0  0
   -3.5156  -51.3626  -15.6042 C   0  0  0  0  0  0  0  0  0  0  0  0
   -3.8763  -52.4620  -16.3268 C   0  0  0  0  0  0  0  0  0  0  0  0
   -2.9515  -53.1087  -17.1529 C   0  0  0  0  0  0  0  0  0  0  0  0
   -1.6571  -52.7028  -17.2955 C   0  0  0  0  0  0  0  0  0  0  0  0
   -4.3959  -50.6584  -14.7495 N   0  0  0  0  0  0  0  0  0  0  0  0
   -4.9170  -49.4530  -15.1233 O   0  0  0  0  0  0  0  0  0  0  0  0
   -4.7166  -51.1189  -13.6384 O   0  0  0  0  0  0  0  0  0  0  0  0
    0.7480  -50.8015  -15.4984 C   0  0  0  0  0  0  0  0  0  0  0  0
   -0.0107  -51.1024  -16.6392 O   0  0  0  0  0  0  0  0  0  0  0  0
    1.4637  -51.9192  -22.2001 N   0  0  0  0  0  0  0  0  0  0  0  0
    2.1012  -52.5610  -22.7764 H   0  0  0  0  0  0  0  0  0  0  0  0
    1.7657  -50.5642  -22.2446 C   0  0  0  0  0  0  0  0  0  0  0  0
    1.2023  -49.6197  -21.4270 C   0  0  0  0  0  0  0  0  0  0  0  0
    1.5421  -48.2542  -21.4904 C   0  0  0  0  0  0  0  0  0  0  0  0
    2.4732  -47.8276  -22.4002 C   0  0  0  0  0  0  0  0  0  0  0  0
    3.0517  -48.7596  -23.2315 C   0  0  0  0  0  0  0  0  0  0  0  0
    2.7073  -50.0922  -23.1564 C   0  0  0  0  0  0  0  0  0  0  0  0
    3.4722  -51.1890  -24.2385 S   0  0  0  0  0  0  0  0  0  0  0  0
    4.9341  -50.9150  -24.4406 O   0  0  0  0  0  0  0  0  0  0  0  0
    3.3559  -52.6417  -23.8013 O   0  0  0  0  0  0  0  0  0  0  0  0
    2.7823  -51.0524  -25.9025 C   0  0  0  0  0  0  0  0  0  0  0  0
    1.2709  -50.8892  -25.6572 C   0  0  0  0  0  0  0  0  0  0  0  0
    3.2867  -49.8623  -26.6360 C   0  0  0  0  0  0  0  0  0  0  0  0
 19 20  1  0  0  0
 20 10  1  0  0  0
 10 11  2  0  0  0
 11 12  1  0  0  0
 12 13  2  0  0  0
 13 14  1  0  0  0
 14 15  2  0  0  0
 15  8  1  0  0  0
  8  1  1  0  0  0
  1  2  2  0  0  0
  2  3  1  0  0  0
  3  4  2  0  0  0
  4  5  1  0  0  0
  4  6  1  0  0  0
  6 21  1  0  0  0
 21 23  1  0  0  0
 23 24  2  0  0  0
 24 25  1  0  0  0
 25 26  2  0  0  0
 26 27  1  0  0  0
 27 28  2  0  0  0
 28 29  1  0  0  0
 29 30  2  0  0  0
 29 31  2  0  0  0
 29 32  1  0  0  0
 32 33  1  0  0  0
 32 34  1  0  0  0
  6  7  2  0  0  0
 12 16  1  0  0  0
 16 17  1  0  0  0
 16 18  2  0  0  0
 15 10  1  0  0  0
  7  1  1  0  0  0
 28 23  1  0  0  0
  8  9  1  0  0  0
 21 22  1  0  0  0
M  CHG 1  16   1
M  CHG 1  17  -1
M  END
> <minimizedAffinity>
-7.34856

> <CNNscore>
0.5252069235

> <CNNaffinity>
6.9891767502

> <CNN_VS>
3.6707639694

> <CNNaffinity_variance>
0.1303387582

$$$$
[H]c1nc(N([H])c2c([H])c([H])c([N+](=O)[O-])c([H])c2OC([H])([H])[H])nc(N([H])c2c([H])c([H])c([H])c([H])c2S(=O)(=O)C([H])(C([H])([H])[H])C([H])([H])[H])c1Cl


 34 36  0  0  0  0  0  0  0  0999 V2000
   -0.8878  -53.3034  -19.3937 C   0  0  0  0  0  0  0  0  0  0  0  0
   -1.7296  -53.9718  -20.1683 N   0  0  0  0  0  0  0  0  0  0  0  0
   -1.6060  -54.0877  -21.4968 C   0  0  0  0  0  0  0  0  0  0  0  0
   -0.5464  -53.4825  -22.1141 C   0  0  0  0  0  0  0  0  0  0  0  0
   -0.3877  -53.6354  -23.8485 Cl  0  0  0  0  0  0  0  0  0  0  0  0
    0.3770  -52.7618  -21.3493 C   0  0  0  0  0  0  0  0  0  0  0  0
    0.1565  -52.7140  -20.0498 N   0  0  0  0  0  0  0  0  0  0  0  0
   -0.9754  -53.1512  -17.9795 N   0  0  0  0  0  0  0  0  0  0  0  0
   -1.1350  -54.0352  -17.4010 H   0  0  0  0  0  0  0  0  0  0  0  0
   -1.8850  -51.6413  -16.3587 C   0  0  0  0  0  0  0  0  0  0  0  0
   -1.8712  -50.4756  -15.6253 C   0  0  0  0  0  0  0  0  0  0  0  0
   -0.8811  -49.5439  -15.7474 C   0  0  0  0  0  0  0  0  0  0  0  0
    0.1154  -49.8122  -16.6394 C   0  0  0  0  0  0  0  0  0  0  0  0
    0.1061  -50.9945  -17.3866 C   0  0  0  0  0  0  0  0  0  0  0  0
   -0.8702  -51.9415  -17.2843 C   0  0  0  0  0  0  0  0  0  0  0  0
   -0.9373  -48.3708  -14.9588 N   0  0  0  0  0  0  0  0  0  0  0  0
    0.0319  -47.4144  -15.0597 O   0  0  0  0  0  0  0  0  0  0  0  0
   -1.8691  -48.1817  -14.1554 O   0  0  0  0  0  0  0  0  0  0  0  0
   -4.2552  -52.1703  -16.2329 C   0  0  0  0  0  0  0  0  0  0  0  0
   -2.9083  -52.5612  -16.2051 O   0  0  0  0  0  0  0  0  0  0  0  0
    1.4630  -52.1425  -22.0121 N   0  0  0  0  0  0  0  0  0  0  0  0
    1.3710  -52.1597  -23.0805 H   0  0  0  0  0  0  0  0  0  0  0  0
    2.6073  -51.5354  -21.5106 C   0  0  0  0  0  0  0  0  0  0  0  0
    2.7832  -51.1829  -20.1981 C   0  0  0  0  0  0  0  0  0  0  0  0
    3.9635  -50.5803  -19.7208 C   0  0  0  0  0  0  0  0  0  0  0  0
    4.9941  -50.3257  -20.5867 C   0  0  0  0  0  0  0  0  0  0  0  0
    4.8386  -50.6716  -21.9098 C   0  0  0  0  0  0  0  0  0  0  0  0
    3.6765  -51.2604  -22.3603 C   0  0  0  0  0  0  0  0  0  0  0  0
    3.5620  -51.6529  -24.0312 S   0  0  0  0  0  0  0  0  0  0  0  0
    4.8794  -51.6189  -24.7497 O   0  0  0  0  0  0  0  0  0  0  0  0
    2.9611  -53.0276  -24.2842 O   0  0  0  0  0  0  0  0  0  0  0  0
    2.5638  -50.4378  -24.9203 C   0  0  0  0  0  0  0  0  0  0  0  0
    3.5479  -49.8344  -25.9394 C   0  0  0  0  0  0  0  0  0  0  0  0
    1.4259  -51.0549  -25.6505 C   0  0  0  0  0  0  0  0  0  0  0  0
 19 20  1  0  0  0
 20 10  1  0  0  0
 10 11  2  0  0  0
 11 12  1  0  0  0
 12 13  2  0  0  0
 13 14  1  0  0  0
 14 15  2  0  0  0
 15  8  1  0  0  0
  8  1  1  0  0  0
  1  2  2  0  0  0
  2  3  1  0  0  0
  3  4  2  0  0  0
  4  5  1  0  0  0
  4  6  1  0  0  0
  6 21  1  0  0  0
 21 23  1  0  0  0
 23 24  2  0  0  0
 24 25  1  0  0  0
 25 26  2  0  0  0
 26 27  1  0  0  0
 27 28  2  0  0  0
 28 29  1  0  0  0
 29 30  2  0  0  0
 29 31  2  0  0  0
 29 32  1  0  0  0
 32 33  1  0  0  0
 32 34  1  0  0  0
  6  7  2  0  0  0
 12 16  1  0  0  0
 16 17  1  0  0  0
 16 18  2  0  0  0
 15 10  1  0  0  0
  7  1  1  0  0  0
 28 23  1  0  0  0
  8  9  1  0  0  0
 21 22  1  0  0  0
M  CHG 1  16   1
M  CHG 1  17  -1
M  END
> <minimizedAffinity>
-6.97377

> <CNNscore>
0.4029527605

> <CNNaffinity>
6.9423322678

> <CNN_VS>
2.7974319458

> <CNNaffinity_variance>
0.1281763762

$$$$
[H]c1nc(N([H])c2c([H])c([H])c([N+](=O)[O-])c([H])c2OC([H])([H])[H])nc(N([H])c2c([H])c([H])c([H])c([H])c2S(=O)(=O)C([H])(C([H])([H])[H])C([H])([H])[H])c1Cl


 34 36  0  0  0  0  0  0  0  0999 V2000
    0.8671  -52.8339  -22.1572 C   0  0  0  0  0  0  0  0  0  0  0  0
    0.1600  -53.8556  -21.6972 N   0  0  0  0  0  0  0  0  0  0  0  0
   -0.4566  -53.8749  -20.5085 C   0  0  0  0  0  0  0  0  0  0  0  0
   -0.3618  -52.7757  -19.7005 C   0  0  0  0  0  0  0  0  0  0  0  0
   -1.1677  -52.8038  -18.1491 Cl  0  0  0  0  0  0  0  0  0  0  0  0
    0.3715  -51.6649  -20.1309 C   0  0  0  0  0  0  0  0  0  0  0  0
    0.9367  -51.7563  -21.3192 N   0  0  0  0  0  0  0  0  0  0  0  0
    1.5401  -52.7648  -23.4114 N   0  0  0  0  0  0  0  0  0  0  0  0
    2.6012  -52.6416  -23.3914 H   0  0  0  0  0  0  0  0  0  0  0  0
    1.0929  -51.7493  -25.5334 C   0  0  0  0  0  0  0  0  0  0  0  0
    0.5301  -51.7323  -26.7903 C   0  0  0  0  0  0  0  0  0  0  0  0
   -0.2169  -52.7675  -27.2736 C   0  0  0  0  0  0  0  0  0  0  0  0
   -0.3909  -53.8424  -26.4518 C   0  0  0  0  0  0  0  0  0  0  0  0
    0.1784  -53.8646  -25.1746 C   0  0  0  0  0  0  0  0  0  0  0  0
    0.9285  -52.8446  -24.6673 C   0  0  0  0  0  0  0  0  0  0  0  0
   -0.7619  -52.6754  -28.5758 N   0  0  0  0  0  0  0  0  0  0  0  0
   -2.1137  -52.6605  -28.7677 O   0  0  0  0  0  0  0  0  0  0  0  0
   -0.0249  -52.6058  -29.5764 O   0  0  0  0  0  0  0  0  0  0  0  0
    2.7695  -50.0289  -25.9114 C   0  0  0  0  0  0  0  0  0  0  0  0
    1.8443  -50.6782  -25.0806 O   0  0  0  0  0  0  0  0  0  0  0  0
    0.4568  -50.5412  -19.2753 N   0  0  0  0  0  0  0  0  0  0  0  0
   -0.3099  -49.8134  -19.4565 H   0  0  0  0  0  0  0  0  0  0  0  0
    1.3594  -50.2342  -18.2651 C   0  0  0  0  0  0  0  0  0  0  0  0
    1.3889  -50.8506  -17.0416 C   0  0  0  0  0  0  0  0  0  0  0  0
    2.3279  -50.5231  -16.0440 C   0  0  0  0  0  0  0  0  0  0  0  0
    3.2618  -49.5499  -16.2836 C   0  0  0  0  0  0  0  0  0  0  0  0
    3.2501  -48.9176  -17.5062 C   0  0  0  0  0  0  0  0  0  0  0  0
    2.3238  -49.2502  -18.4712 C   0  0  0  0  0  0  0  0  0  0  0  0
    2.3742  -48.4046  -19.9684 S   0  0  0  0  0  0  0  0  0  0  0  0
    1.0283  -48.2369  -20.6113 O   0  0  0  0  0  0  0  0  0  0  0  0
    2.9792  -47.0135  -19.8510 O   0  0  0  0  0  0  0  0  0  0  0  0
    3.3220  -49.3205  -21.2038 C   0  0  0  0  0  0  0  0  0  0  0  0
    3.0272  -48.5719  -22.5168 C   0  0  0  0  0  0  0  0  0  0  0  0
    4.7849  -49.2876  -20.9438 C   0  0  0  0  0  0  0  0  0  0  0  0
 19 20  1  0  0  0
 20 10  1  0  0  0
 10 11  2  0  0  0
 11 12  1  0  0  0
 12 13  2  0  0  0
 13 14  1  0  0  0
 14 15  2  0  0  0
 15  8  1  0  0  0
  8  1  1  0  0  0
  1  2  2  0  0  0
  2  3  1  0  0  0
  3  4  2  0  0  0
  4  5  1  0  0  0
  4  6  1  0  0  0
  6 21  1  0  0  0
 21 23  1  0  0  0
 23 24  2  0  0  0
 24 25  1  0  0  0
 25 26  2  0  0  0
 26 27  1  0  0  0
 27 28  2  0  0  0
 28 29  1  0  0  0
 29 30  2  0  0  0
 29 31  2  0  0  0
 29 32  1  0  0  0
 32 33  1  0  0  0
 32 34  1  0  0  0
  6  7  2  0  0  0
 12 16  1  0  0  0
 16 17  1  0  0  0
 16 18  2  0  0  0
 15 10  1  0  0  0
  7  1  1  0  0  0
 28 23  1  0  0  0
  8  9  1  0  0  0
 21 22  1  0  0  0
M  CHG 1  16   1
M  CHG 1  17  -1
M  END
> <minimizedAffinity>
-6.90619

> <CNNscore>
0.3526175022

> <CNNaffinity>
7.0964341164

> <CNN_VS>
2.5023269653

> <CNNaffinity_variance>
0.1315581501

$$$$
[H]N=C(N([H])[H])N([H])C([H])([H])C([H])([H])C([H])([H])[C@@]([H])(C(=O)N([H])[C@]([H])(C(=O)N([H])[H])C([H])([H])c1c([H])c([H])c([H])c([H])c1[H])N([H])C(=O)[C@@]([H])(N([H])C(=O)[C@@]([H])(N([H])C(=O)OC([H])([H])c1c([H])c([H])c([H])c([H])c1[H])C([H])([H])c1c([H])c([H])c([H])c([H])c1[H])C([H])([H])C([H])(C([H])([H])[H])C([H])([H])[H]


 62 64  0  0  0  0  0  0  0  0999 V2000
    3.3049  -51.0951  -20.6816 C   0  0  0  0  0  0  0  0  0  0  0  0
    3.6416  -51.9507  -19.8642 O   0  0  0  0  0  0  0  0  0  0  0  0
    3.1780  -51.2409  -22.0668 N   0  0  0  0  0  0  0  0  0  0  0  0
    3.5815  -52.5434  -21.9683 H   0  0  0  0  0  0  0  0  0  0  0  0
    3.0594  -51.3907  -23.3912 C   0  0  0  0  0  0  0  0  0  0  0  0
    1.6049  -51.7342  -23.7591 C   0  0  0  0  0  0  0  0  0  0  0  0
    1.0603  -50.8971  -24.5020 O   0  0  0  0  0  0  0  0  0  0  0  0
    0.9931  -52.8687  -23.2891 N   0  0  0  0  0  0  0  0  0  0  0  0
    1.5906  -53.5144  -22.6725 H   0  0  0  0  0  0  0  0  0  0  0  0
   -0.3637  -53.3653  -23.4964 C   0  0  0  0  0  0  0  0  0  0  0  0
   -0.9797  -53.7313  -22.2285 C   0  0  0  0  0  0  0  0  0  0  0  0
   -1.5206  -52.8512  -21.2633 N   0  0  0  0  0  0  0  0  0  0  0  0
   -1.0617  -54.9762  -21.8996 O   0  0  0  0  0  0  0  0  0  0  0  0
   -0.8691  -52.0668  -20.9632 H   0  0  0  0  0  0  0  0  0  0  0  0
   -2.4852  -52.9458  -20.8576 H   0  0  0  0  0  0  0  0  0  0  0  0
   -0.3517  -54.3668  -24.5961 C   0  0  0  0  0  0  0  0  0  0  0  0
   -0.4110  -53.7508  -25.9188 C   0  0  0  0  0  0  0  0  0  0  0  0
    0.4265  -54.1548  -26.9311 C   0  0  0  0  0  0  0  0  0  0  0  0
    0.3394  -53.5451  -28.1573 C   0  0  0  0  0  0  0  0  0  0  0  0
   -0.5822  -52.5451  -28.3501 C   0  0  0  0  0  0  0  0  0  0  0  0
   -1.4262  -52.1297  -27.3553 C   0  0  0  0  0  0  0  0  0  0  0  0
   -1.3468  -52.7300  -26.1312 C   0  0  0  0  0  0  0  0  0  0  0  0
    3.9097  -52.4493  -24.0970 C   0  0  0  0  0  0  0  0  0  0  0  0
    5.3118  -52.4894  -23.6070 C   0  0  0  0  0  0  0  0  0  0  0  0
    6.0808  -51.2866  -24.0982 C   0  0  0  0  0  0  0  0  0  0  0  0
    7.4303  -51.2581  -23.6236 N   0  0  0  0  0  0  0  0  0  0  0  0
    8.0134  -52.1228  -23.5749 H   0  0  0  0  0  0  0  0  0  0  0  0
    7.9882  -50.0145  -23.2011 C   0  0  0  0  0  0  0  0  0  0  0  0
    8.3782  -49.1306  -24.2281 N   0  0  0  0  0  0  0  0  0  0  0  0
    8.1224  -49.7238  -21.9424 N   0  0  0  0  0  0  0  0  0  0  0  0
    7.6833  -48.5016  -24.6612 H   0  0  0  0  0  0  0  0  0  0  0  0
    9.3542  -49.1123  -24.5516 H   0  0  0  0  0  0  0  0  0  0  0  0
    7.7996  -50.4558  -21.2631 H   0  0  0  0  0  0  0  0  0  0  0  0
    3.0005  -49.7452  -20.0698 C   0  0  0  0  0  0  0  0  0  0  0  0
    3.5809  -48.6867  -20.8467 N   0  0  0  0  0  0  0  0  0  0  0  0
    4.9117  -48.3076  -20.8613 C   0  0  0  0  0  0  0  0  0  0  0  0
    5.7652  -48.8655  -20.1707 O   0  0  0  0  0  0  0  0  0  0  0  0
    2.8858  -48.1645  -21.4608 H   0  0  0  0  0  0  0  0  0  0  0  0
    5.3369  -47.1781  -21.7552 C   0  0  0  0  0  0  0  0  0  0  0  0
    5.3193  -47.6982  -23.0826 N   0  0  0  0  0  0  0  0  0  0  0  0
    4.2148  -47.9594  -23.9074 C   0  0  0  0  0  0  0  0  0  0  0  0
    3.0643  -47.7193  -23.4765 O   0  0  0  0  0  0  0  0  0  0  0  0
    6.2853  -47.9197  -23.4995 H   0  0  0  0  0  0  0  0  0  0  0  0
    4.3669  -48.4700  -25.1788 O   0  0  0  0  0  0  0  0  0  0  0  0
    3.3231  -48.6817  -26.0836 C   0  0  0  0  0  0  0  0  0  0  0  0
    3.3403  -47.7176  -27.2334 C   0  0  0  0  0  0  0  0  0  0  0  0
    2.5097  -46.6123  -27.0624 C   0  0  0  0  0  0  0  0  0  0  0  0
    2.4960  -45.6774  -28.1044 C   0  0  0  0  0  0  0  0  0  0  0  0
    3.2576  -45.8430  -29.2217 C   0  0  0  0  0  0  0  0  0  0  0  0
    4.0694  -46.9464  -29.3623 C   0  0  0  0  0  0  0  0  0  0  0  0
    4.1042  -47.8866  -28.3536 C   0  0  0  0  0  0  0  0  0  0  0  0
    4.5016  -45.9744  -21.5426 C   0  0  0  0  0  0  0  0  0  0  0  0
    4.8458  -45.2347  -20.3125 C   0  0  0  0  0  0  0  0  0  0  0  0
    6.1321  -44.8563  -19.9963 C   0  0  0  0  0  0  0  0  0  0  0  0
    6.4267  -44.1389  -18.8396 C   0  0  0  0  0  0  0  0  0  0  0  0
    5.4127  -43.7890  -17.9724 C   0  0  0  0  0  0  0  0  0  0  0  0
    4.1178  -44.1570  -18.2708 C   0  0  0  0  0  0  0  0  0  0  0  0
    3.8439  -44.8660  -19.4195 C   0  0  0  0  0  0  0  0  0  0  0  0
    1.6066  -49.5012  -19.7137 C   0  0  0  0  0  0  0  0  0  0  0  0
    0.4602  -50.5340  -17.6978 C   0  0  0  0  0  0  0  0  0  0  0  0
    1.2371  -49.4070  -18.2838 C   0  0  0  0  0  0  0  0  0  0  0  0
    2.5722  -49.3881  -17.5057 C   0  0  0  0  0  0  0  0  0  0  0  0
 60 61  1  0  0  0
 61 62  1  0  0  0
 61 59  1  0  0  0
 59 34  1  0  0  0
 34 35  1  0  0  0
 35 36  1  0  0  0
 36 37  2  0  0  0
 36 39  1  0  0  0
 39 52  1  0  0  0
 52 53  1  0  0  0
 53 54  2  0  0  0
 54 55  1  0  0  0
 55 56  2  0  0  0
 56 57  1  0  0  0
 57 58  2  0  0  0
 39 40  1  0  0  0
 40 41  1  0  0  0
 41 42  2  0  0  0
 41 44  1  0  0  0
 44 45  1  0  0  0
 45 46  1  0  0  0
 46 47  2  0  0  0
 47 48  1  0  0  0
 48 49  2  0  0  0
 49 50  1  0  0  0
 50 51  2  0  0  0
 34  1  1  0  0  0
  1  2  2  0  0  0
  1  3  1  0  0  0
  3  5  1  0  0  0
  5 23  1  0  0  0
 23 24  1  0  0  0
 24 25  1  0  0  0
 25 26  1  0  0  0
 26 28  1  0  0  0
 28 29  1  0  0  0
 28 30  2  0  0  0
  5  6  1  0  0  0
  6  7  2  0  0  0
  6  8  1  0  0  0
  8 10  1  0  0  0
 10 16  1  0  0  0
 16 17  1  0  0  0
 17 18  2  0  0  0
 18 19  1  0  0  0
 19 20  2  0  0  0
 20 21  1  0  0  0
 21 22  2  0  0  0
 10 11  1  0  0  0
 11 12  1  0  0  0
 11 13  2  0  0  0
 58 53  1  0  0  0
 51 46  1  0  0  0
 22 17  1  0  0  0
 35 38  1  0  0  0
 40 43  1  0  0  0
  3  4  1  0  0  0
 26 27  1  0  0  0
 29 31  1  0  0  0
 29 32  1  0  0  0
 30 33  1  0  0  0
  8  9  1  0  0  0
 12 14  1  0  0  0
 12 15  1  0  0  0
M  END
> <minimizedAffinity>
-6.81263

> <CNNscore>
0.4072576165

> <CNNaffinity>
7.4965972900

> <CNN_VS>
3.0530462265

> <CNNaffinity_variance>
0.3902978897

$$$$
[H]N=C(N([H])[H])N([H])C([H])([H])C([H])([H])C([H])([H])[C@@]([H])(C(=O)N([H])[C@]([H])(C(=O)N([H])[H])C([H])([H])c1c([H])c([H])c([H])c([H])c1[H])N([H])C(=O)[C@@]([H])(N([H])C(=O)[C@@]([H])(N([H])C(=O)OC([H])([H])c1c([H])c([H])c([H])c([H])c1[H])C([H])([H])c1c([H])c([H])c([H])c([H])c1[H])C([H])([H])C([H])(C([H])([H])[H])C([H])([H])[H]


 62 64  0  0  0  0  0  0  0  0999 V2000
    1.6890  -49.2352  -21.9775 C   0  0  0  0  0  0  0  0  0  0  0  0
    0.6640  -49.3080  -21.3010 O   0  0  0  0  0  0  0  0  0  0  0  0
    2.1282  -50.1279  -22.9606 N   0  0  0  0  0  0  0  0  0  0  0  0
    1.0357  -50.9178  -22.7336 H   0  0  0  0  0  0  0  0  0  0  0  0
    2.5395  -50.9879  -23.8996 C   0  0  0  0  0  0  0  0  0  0  0  0
    1.3292  -51.6629  -24.5691 C   0  0  0  0  0  0  0  0  0  0  0  0
    0.8150  -50.9894  -25.4808 O   0  0  0  0  0  0  0  0  0  0  0  0
    0.8815  -52.8965  -24.1688 N   0  0  0  0  0  0  0  0  0  0  0  0
    1.4352  -53.3746  -23.3820 H   0  0  0  0  0  0  0  0  0  0  0  0
   -0.2427  -53.6947  -24.6480 C   0  0  0  0  0  0  0  0  0  0  0  0
   -0.8686  -54.4180  -23.5498 C   0  0  0  0  0  0  0  0  0  0  0  0
   -1.6998  -55.5572  -23.6496 N   0  0  0  0  0  0  0  0  0  0  0  0
   -0.6818  -54.0162  -22.3382 O   0  0  0  0  0  0  0  0  0  0  0  0
   -2.5131  -55.4555  -24.3263 H   0  0  0  0  0  0  0  0  0  0  0  0
   -1.5485  -56.4438  -23.1062 H   0  0  0  0  0  0  0  0  0  0  0  0
    0.1820  -54.4585  -25.8516 C   0  0  0  0  0  0  0  0  0  0  0  0
   -0.1648  -53.7822  -27.0986 C   0  0  0  0  0  0  0  0  0  0  0  0
    0.6664  -53.8339  -28.1921 C   0  0  0  0  0  0  0  0  0  0  0  0
    0.3031  -53.1798  -29.3423 C   0  0  0  0  0  0  0  0  0  0  0  0
   -0.8827  -52.4877  -29.3796 C   0  0  0  0  0  0  0  0  0  0  0  0
   -1.7249  -52.4256  -28.3019 C   0  0  0  0  0  0  0  0  0  0  0  0
   -1.3718  -53.0730  -27.1523 C   0  0  0  0  0  0  0  0  0  0  0  0
    3.4656  -52.1380  -23.4976 C   0  0  0  0  0  0  0  0  0  0  0  0
    4.7079  -52.1947  -24.3106 C   0  0  0  0  0  0  0  0  0  0  0  0
    5.8081  -51.3943  -23.6559 C   0  0  0  0  0  0  0  0  0  0  0  0
    6.7698  -50.9012  -24.5936 N   0  0  0  0  0  0  0  0  0  0  0  0
    7.6085  -51.4605  -24.8652 H   0  0  0  0  0  0  0  0  0  0  0  0
    6.5769  -49.6083  -25.1659 C   0  0  0  0  0  0  0  0  0  0  0  0
    7.5358  -49.2033  -26.1171 N   0  0  0  0  0  0  0  0  0  0  0  0
    5.5730  -48.8582  -24.8247 N   0  0  0  0  0  0  0  0  0  0  0  0
    7.4392  -49.4910  -27.1040 H   0  0  0  0  0  0  0  0  0  0  0  0
    8.3358  -48.6241  -25.8305 H   0  0  0  0  0  0  0  0  0  0  0  0
    4.9208  -49.2590  -24.1068 H   0  0  0  0  0  0  0  0  0  0  0  0
    2.5399  -48.0206  -21.6773 C   0  0  0  0  0  0  0  0  0  0  0  0
    3.6178  -48.3555  -20.7904 N   0  0  0  0  0  0  0  0  0  0  0  0
    3.8609  -47.8079  -19.5429 C   0  0  0  0  0  0  0  0  0  0  0  0
    3.1440  -46.9340  -19.0540 O   0  0  0  0  0  0  0  0  0  0  0  0
    4.2746  -49.1045  -21.1652 H   0  0  0  0  0  0  0  0  0  0  0  0
    5.0382  -48.2982  -18.7497 C   0  0  0  0  0  0  0  0  0  0  0  0
    4.5125  -49.2084  -17.7864 N   0  0  0  0  0  0  0  0  0  0  0  0
    3.8934  -50.4493  -17.9989 C   0  0  0  0  0  0  0  0  0  0  0  0
    3.7603  -50.8692  -19.1706 O   0  0  0  0  0  0  0  0  0  0  0  0
    4.6043  -48.8935  -16.7624 H   0  0  0  0  0  0  0  0  0  0  0  0
    3.4324  -51.2161  -16.9501 O   0  0  0  0  0  0  0  0  0  0  0  0
    2.9859  -50.7087  -15.7269 C   0  0  0  0  0  0  0  0  0  0  0  0
    1.4913  -50.5986  -15.6493 C   0  0  0  0  0  0  0  0  0  0  0  0
    0.9779  -49.4225  -16.1915 C   0  0  0  0  0  0  0  0  0  0  0  0
   -0.4137  -49.2748  -16.1513 C   0  0  0  0  0  0  0  0  0  0  0  0
   -1.2178  -50.2333  -15.6125 C   0  0  0  0  0  0  0  0  0  0  0  0
   -0.6810  -51.3860  -15.0840 C   0  0  0  0  0  0  0  0  0  0  0  0
    0.6870  -51.5611  -15.1072 C   0  0  0  0  0  0  0  0  0  0  0  0
    6.0905  -48.8554  -19.6294 C   0  0  0  0  0  0  0  0  0  0  0  0
    6.8396  -47.8217  -20.3706 C   0  0  0  0  0  0  0  0  0  0  0  0
    7.1226  -47.9158  -21.7155 C   0  0  0  0  0  0  0  0  0  0  0  0
    7.8119  -46.9152  -22.3961 C   0  0  0  0  0  0  0  0  0  0  0  0
    8.2323  -45.7895  -21.7189 C   0  0  0  0  0  0  0  0  0  0  0  0
    7.9582  -45.6749  -20.3724 C   0  0  0  0  0  0  0  0  0  0  0  0
    7.2748  -46.6739  -19.7148 C   0  0  0  0  0  0  0  0  0  0  0  0
    2.9653  -47.2338  -22.8302 C   0  0  0  0  0  0  0  0  0  0  0  0
    4.4705  -45.2312  -22.4196 C   0  0  0  0  0  0  0  0  0  0  0  0
    3.1072  -45.7678  -22.6856 C   0  0  0  0  0  0  0  0  0  0  0  0
    2.6961  -45.1698  -24.0500 C   0  0  0  0  0  0  0  0  0  0  0  0
 60 61  1  0  0  0
 61 62  1  0  0  0
 61 59  1  0  0  0
 59 34  1  0  0  0
 34 35  1  0  0  0
 35 36  1  0  0  0
 36 37  2  0  0  0
 36 39  1  0  0  0
 39 52  1  0  0  0
 52 53  1  0  0  0
 53 54  2  0  0  0
 54 55  1  0  0  0
 55 56  2  0  0  0
 56 57  1  0  0  0
 57 58  2  0  0  0
 39 40  1  0  0  0
 40 41  1  0  0  0
 41 42  2  0  0  0
 41 44  1  0  0  0
 44 45  1  0  0  0
 45 46  1  0  0  0
 46 47  2  0  0  0
 47 48  1  0  0  0
 48 49  2  0  0  0
 49 50  1  0  0  0
 50 51  2  0  0  0
 34  1  1  0  0  0
  1  2  2  0  0  0
  1  3  1  0  0  0
  3  5  1  0  0  0
  5 23  1  0  0  0
 23 24  1  0  0  0
 24 25  1  0  0  0
 25 26  1  0  0  0
 26 28  1  0  0  0
 28 29  1  0  0  0
 28 30  2  0  0  0
  5  6  1  0  0  0
  6  7  2  0  0  0
  6  8  1  0  0  0
  8 10  1  0  0  0
 10 16  1  0  0  0
 16 17  1  0  0  0
 17 18  2  0  0  0
 18 19  1  0  0  0
 19 20  2  0  0  0
 20 21  1  0  0  0
 21 22  2  0  0  0
 10 11  1  0  0  0
 11 12  1  0  0  0
 11 13  2  0  0  0
 58 53  1  0  0  0
 51 46  1  0  0  0
 22 17  1  0  0  0
 35 38  1  0  0  0
 40 43  1  0  0  0
  3  4  1  0  0  0
 26 27  1  0  0  0
 29 31  1  0  0  0
 29 32  1  0  0  0
 30 33  1  0  0  0
  8  9  1  0  0  0
 12 14  1  0  0  0
 12 15  1  0  0  0
M  END
> <minimizedAffinity>
-7.03702

> <CNNscore>
0.3324141204

> <CNNaffinity>
7.4184379578

> <CNN_VS>
2.4659936428

> <CNNaffinity_variance>
0.2105141580

$$$$
[H]N=C(N([H])[H])N([H])C([H])([H])C([H])([H])C([H])([H])[C@@]([H])(C(=O)N([H])[C@]([H])(C(=O)N([H])[H])C([H])([H])c1c([H])c([H])c([H])c([H])c1[H])N([H])C(=O)[C@@]([H])(N([H])C(=O)[C@@]([H])(N([H])C(=O)OC([H])([H])c1c([H])c([H])c([H])c([H])c1[H])C([H])([H])c1c([H])c([H])c([H])c([H])c1[H])C([H])([H])C([H])(C([H])([H])[H])C([H])([H])[H]


 62 64  0  0  0  0  0  0  0  0999 V2000
    2.6699  -50.5124  -18.6216 C   0  0  0  0  0  0  0  0  0  0  0  0
    3.3488  -51.3778  -18.0703 O   0  0  0  0  0  0  0  0  0  0  0  0
    2.3354  -50.4246  -19.9768 N   0  0  0  0  0  0  0  0  0  0  0  0
    3.0585  -51.5567  -20.2303 H   0  0  0  0  0  0  0  0  0  0  0  0
    2.0207  -50.3497  -21.2752 C   0  0  0  0  0  0  0  0  0  0  0  0
    0.7114  -51.1107  -21.5496 C   0  0  0  0  0  0  0  0  0  0  0  0
   -0.2888  -50.6087  -21.0047 O   0  0  0  0  0  0  0  0  0  0  0  0
    0.6860  -52.2407  -22.3273 N   0  0  0  0  0  0  0  0  0  0  0  0
    1.6226  -52.5499  -22.7530 H   0  0  0  0  0  0  0  0  0  0  0  0
   -0.4270  -53.1119  -22.6916 C   0  0  0  0  0  0  0  0  0  0  0  0
   -0.6870  -54.0855  -21.6403 C   0  0  0  0  0  0  0  0  0  0  0  0
    0.0909  -54.3098  -20.4812 N   0  0  0  0  0  0  0  0  0  0  0  0
   -1.7200  -54.8534  -21.7287 O   0  0  0  0  0  0  0  0  0  0  0  0
    1.1257  -54.4683  -20.6648 H   0  0  0  0  0  0  0  0  0  0  0  0
   -0.3000  -54.3266  -19.5060 H   0  0  0  0  0  0  0  0  0  0  0  0
   -0.2249  -53.6030  -24.0810 C   0  0  0  0  0  0  0  0  0  0  0  0
    0.7922  -52.8441  -24.8037 C   0  0  0  0  0  0  0  0  0  0  0  0
    2.0668  -53.3334  -24.9634 C   0  0  0  0  0  0  0  0  0  0  0  0
    2.9921  -52.5844  -25.6458 C   0  0  0  0  0  0  0  0  0  0  0  0
    2.6278  -51.3626  -26.1564 C   0  0  0  0  0  0  0  0  0  0  0  0
    1.3633  -50.8586  -26.0094 C   0  0  0  0  0  0  0  0  0  0  0  0
    0.4353  -51.5963  -25.3313 C   0  0  0  0  0  0  0  0  0  0  0  0
    3.0146  -50.8798  -22.3111 C   0  0  0  0  0  0  0  0  0  0  0  0
    4.2276  -51.4803  -21.6981 C   0  0  0  0  0  0  0  0  0  0  0  0
    5.4011  -50.5368  -21.8088 C   0  0  0  0  0  0  0  0  0  0  0  0
    6.4711  -51.0710  -22.5943 N   0  0  0  0  0  0  0  0  0  0  0  0
    7.4141  -51.2542  -22.1853 H   0  0  0  0  0  0  0  0  0  0  0  0
    6.2411  -51.3538  -23.9740 C   0  0  0  0  0  0  0  0  0  0  0  0
    5.8950  -50.2516  -24.7824 N   0  0  0  0  0  0  0  0  0  0  0  0
    6.3489  -52.5588  -24.4466 N   0  0  0  0  0  0  0  0  0  0  0  0
    6.6335  -49.6507  -25.1820 H   0  0  0  0  0  0  0  0  0  0  0  0
    4.9068  -50.0403  -24.9731 H   0  0  0  0  0  0  0  0  0  0  0  0
    6.6110  -53.3036  -23.7553 H   0  0  0  0  0  0  0  0  0  0  0  0
    2.1573  -49.4416  -17.6836 C   0  0  0  0  0  0  0  0  0  0  0  0
    2.5018  -48.1326  -18.1616 N   0  0  0  0  0  0  0  0  0  0  0  0
    3.7777  -47.6197  -18.3168 C   0  0  0  0  0  0  0  0  0  0  0  0
    4.7882  -48.2671  -18.0400 O   0  0  0  0  0  0  0  0  0  0  0  0
    1.6644  -47.5251  -18.4118 H   0  0  0  0  0  0  0  0  0  0  0  0
    3.9417  -46.2243  -18.8474 C   0  0  0  0  0  0  0  0  0  0  0  0
    3.2870  -46.2050  -20.1138 N   0  0  0  0  0  0  0  0  0  0  0  0
    3.7870  -46.5946  -21.3654 C   0  0  0  0  0  0  0  0  0  0  0  0
    4.9578  -47.0308  -21.4430 O   0  0  0  0  0  0  0  0  0  0  0  0
    2.2760  -45.8392  -20.1001 H   0  0  0  0  0  0  0  0  0  0  0  0
    3.0201  -46.5115  -22.5079 O   0  0  0  0  0  0  0  0  0  0  0  0
    3.1289  -45.5039  -23.4701 C   0  0  0  0  0  0  0  0  0  0  0  0
    3.0484  -46.0248  -24.8751 C   0  0  0  0  0  0  0  0  0  0  0  0
    3.7431  -47.2145  -25.0820 C   0  0  0  0  0  0  0  0  0  0  0  0
    3.6924  -47.7474  -26.3757 C   0  0  0  0  0  0  0  0  0  0  0  0
    2.9978  -47.1332  -27.3737 C   0  0  0  0  0  0  0  0  0  0  0  0
    2.3204  -45.9575  -27.1387 C   0  0  0  0  0  0  0  0  0  0  0  0
    2.3520  -45.4062  -25.8747 C   0  0  0  0  0  0  0  0  0  0  0  0
    3.4597  -45.2152  -17.8773 C   0  0  0  0  0  0  0  0  0  0  0  0
    4.2781  -45.1468  -16.6507 C   0  0  0  0  0  0  0  0  0  0  0  0
    3.7787  -45.4189  -15.3960 C   0  0  0  0  0  0  0  0  0  0  0  0
    4.5784  -45.3689  -14.2570 C   0  0  0  0  0  0  0  0  0  0  0  0
    5.9127  -45.0379  -14.3696 C   0  0  0  0  0  0  0  0  0  0  0  0
    6.4329  -44.7630  -15.6166 C   0  0  0  0  0  0  0  0  0  0  0  0
    5.6279  -44.8176  -16.7330 C   0  0  0  0  0  0  0  0  0  0  0  0
    0.7604  -49.5581  -17.2782 C   0  0  0  0  0  0  0  0  0  0  0  0
    1.3956  -49.0577  -14.8717 C   0  0  0  0  0  0  0  0  0  0  0  0
    0.4375  -49.6628  -15.8377 C   0  0  0  0  0  0  0  0  0  0  0  0
   -0.8805  -48.8793  -15.6451 C   0  0  0  0  0  0  0  0  0  0  0  0
 60 61  1  0  0  0
 61 62  1  0  0  0
 61 59  1  0  0  0
 59 34  1  0  0  0
 34 35  1  0  0  0
 35 36  1  0  0  0
 36 37  2  0  0  0
 36 39  1  0  0  0
 39 52  1  0  0  0
 52 53  1  0  0  0
 53 54  2  0  0  0
 54 55  1  0  0  0
 55 56  2  0  0  0
 56 57  1  0  0  0
 57 58  2  0  0  0
 39 40  1  0  0  0
 40 41  1  0  0  0
 41 42  2  0  0  0
 41 44  1  0  0  0
 44 45  1  0  0  0
 45 46  1  0  0  0
 46 47  2  0  0  0
 47 48  1  0  0  0
 48 49  2  0  0  0
 49 50  1  0  0  0
 50 51  2  0  0  0
 34  1  1  0  0  0
  1  2  2  0  0  0
  1  3  1  0  0  0
  3  5  1  0  0  0
  5 23  1  0  0  0
 23 24  1  0  0  0
 24 25  1  0  0  0
 25 26  1  0  0  0
 26 28  1  0  0  0
 28 29  1  0  0  0
 28 30  2  0  0  0
  5  6  1  0  0  0
  6  7  2  0  0  0
  6  8  1  0  0  0
  8 10  1  0  0  0
 10 16  1  0  0  0
 16 17  1  0  0  0
 17 18  2  0  0  0
 18 19  1  0  0  0
 19 20  2  0  0  0
 20 21  1  0  0  0
 21 22  2  0  0  0
 10 11  1  0  0  0
 11 12  1  0  0  0
 11 13  2  0  0  0
 58 53  1  0  0  0
 51 46  1  0  0  0
 22 17  1  0  0  0
 35 38  1  0  0  0
 40 43  1  0  0  0
  3  4  1  0  0  0
 26 27  1  0  0  0
 29 31  1  0  0  0
 29 32  1  0  0  0
 30 33  1  0  0  0
  8  9  1  0  0  0
 12 14  1  0  0  0
 12 15  1  0  0  0
M  END
> <minimizedAffinity>
-6.71920

> <CNNscore>
0.3256877065

> <CNNaffinity>
7.1256866455

> <CNN_VS>
2.3207485676

> <CNNaffinity_variance>
0.5871154666

$$$$
[H]N=C(N([H])[H])N([H])C([H])([H])C([H])([H])C([H])([H])[C@@]([H])(C(=O)N([H])[C@]([H])(C(=O)N([H])[H])C([H])([H])c1c([H])c([H])c([H])c([H])c1[H])N([H])C(=O)[C@@]([H])(N([H])C(=O)[C@@]([H])(N([H])C(=O)OC([H])([H])c1c([H])c([H])c([H])c([H])c1[H])C([H])([H])c1c([H])c([H])c([H])c([H])c1[H])C([H])([H])C([H])(C([H])([H])[H])C([H])([H])[H]


 62 64  0  0  0  0  0  0  0  0999 V2000
    1.2540  -50.5838  -22.5115 C   0  0  0  0  0  0  0  0  0  0  0  0
    1.7428  -49.5336  -22.0970 O   0  0  0  0  0  0  0  0  0  0  0  0
    1.2285  -51.0520  -23.8292 N   0  0  0  0  0  0  0  0  0  0  0  0
    1.8702  -49.9191  -24.2458 H   0  0  0  0  0  0  0  0  0  0  0  0
    1.2095  -51.4912  -25.0930 C   0  0  0  0  0  0  0  0  0  0  0  0
    2.2585  -50.7405  -25.9324 C   0  0  0  0  0  0  0  0  0  0  0  0
    2.4540  -51.2355  -27.0577 O   0  0  0  0  0  0  0  0  0  0  0  0
    2.9044  -49.6300  -25.4507 N   0  0  0  0  0  0  0  0  0  0  0  0
    2.6207  -49.2998  -24.4685 H   0  0  0  0  0  0  0  0  0  0  0  0
    3.9314  -48.7939  -26.0643 C   0  0  0  0  0  0  0  0  0  0  0  0
    5.2388  -49.0737  -25.4872 C   0  0  0  0  0  0  0  0  0  0  0  0
    6.4978  -48.8383  -26.0858 N   0  0  0  0  0  0  0  0  0  0  0  0
    5.3134  -49.5963  -24.3099 O   0  0  0  0  0  0  0  0  0  0  0  0
    6.6073  -49.2421  -27.0629 H   0  0  0  0  0  0  0  0  0  0  0  0
    7.2797  -48.3121  -25.6210 H   0  0  0  0  0  0  0  0  0  0  0  0
    3.4555  -47.3850  -26.0966 C   0  0  0  0  0  0  0  0  0  0  0  0
    3.1613  -46.9212  -27.4497 C   0  0  0  0  0  0  0  0  0  0  0  0
    3.9359  -47.3048  -28.5185 C   0  0  0  0  0  0  0  0  0  0  0  0
    3.6259  -46.8413  -29.7722 C   0  0  0  0  0  0  0  0  0  0  0  0
    2.5487  -46.0050  -29.9356 C   0  0  0  0  0  0  0  0  0  0  0  0
    1.7641  -45.6128  -28.8843 C   0  0  0  0  0  0  0  0  0  0  0  0
    2.0649  -46.0684  -27.6324 C   0  0  0  0  0  0  0  0  0  0  0  0
   -0.0901  -51.3887  -25.8945 C   0  0  0  0  0  0  0  0  0  0  0  0
   -0.8365  -52.6718  -25.9574 C   0  0  0  0  0  0  0  0  0  0  0  0
    0.1056  -53.8220  -26.2198 C   0  0  0  0  0  0  0  0  0  0  0  0
    0.0851  -54.2571  -27.5827 N   0  0  0  0  0  0  0  0  0  0  0  0
   -0.5097  -55.0564  -27.8949 H   0  0  0  0  0  0  0  0  0  0  0  0
    0.9047  -53.5821  -28.5361 C   0  0  0  0  0  0  0  0  0  0  0  0
    2.2666  -53.9471  -28.5498 N   0  0  0  0  0  0  0  0  0  0  0  0
    0.4143  -52.6876  -29.3399 N   0  0  0  0  0  0  0  0  0  0  0  0
    2.5761  -54.7714  -29.0892 H   0  0  0  0  0  0  0  0  0  0  0  0
    2.9549  -53.3965  -28.0199 H   0  0  0  0  0  0  0  0  0  0  0  0
   -0.6125  -52.4935  -29.2426 H   0  0  0  0  0  0  0  0  0  0  0  0
    0.6207  -51.4357  -21.4333 C   0  0  0  0  0  0  0  0  0  0  0  0
    0.9163  -50.9157  -20.1283 N   0  0  0  0  0  0  0  0  0  0  0  0
    1.9286  -51.3343  -19.2827 C   0  0  0  0  0  0  0  0  0  0  0  0
    2.7063  -52.2413  -19.5815 O   0  0  0  0  0  0  0  0  0  0  0  0
    0.2700  -50.1302  -19.8150 H   0  0  0  0  0  0  0  0  0  0  0  0
    2.0926  -50.6566  -17.9526 C   0  0  0  0  0  0  0  0  0  0  0  0
    1.0514  -51.1636  -17.1211 N   0  0  0  0  0  0  0  0  0  0  0  0
   -0.0120  -50.4687  -16.5254 C   0  0  0  0  0  0  0  0  0  0  0  0
   -0.1159  -49.2362  -16.7175 O   0  0  0  0  0  0  0  0  0  0  0  0
    1.0951  -52.2203  -16.9269 H   0  0  0  0  0  0  0  0  0  0  0  0
   -0.9443  -51.1106  -15.7384 O   0  0  0  0  0  0  0  0  0  0  0  0
   -2.2025  -50.5970  -15.4127 C   0  0  0  0  0  0  0  0  0  0  0  0
   -3.2464  -51.6630  -15.2522 C   0  0  0  0  0  0  0  0  0  0  0  0
   -3.6810  -51.8416  -13.9407 C   0  0  0  0  0  0  0  0  0  0  0  0
   -4.6619  -52.8199  -13.7384 C   0  0  0  0  0  0  0  0  0  0  0  0
   -5.1627  -53.5527  -14.7717 C   0  0  0  0  0  0  0  0  0  0  0  0
   -4.7133  -53.3534  -16.0580 C   0  0  0  0  0  0  0  0  0  0  0  0
   -3.7463  -52.3976  -16.2902 C   0  0  0  0  0  0  0  0  0  0  0  0
    3.4624  -50.8330  -17.4194 C   0  0  0  0  0  0  0  0  0  0  0  0
    3.5470  -50.6543  -15.9565 C   0  0  0  0  0  0  0  0  0  0  0  0
    3.7486  -51.6984  -15.0808 C   0  0  0  0  0  0  0  0  0  0  0  0
    3.8472  -51.4994  -13.7059 C   0  0  0  0  0  0  0  0  0  0  0  0
    3.7411  -50.2254  -13.1879 C   0  0  0  0  0  0  0  0  0  0  0  0
    3.5404  -49.1661  -14.0474 C   0  0  0  0  0  0  0  0  0  0  0  0
    3.4458  -49.3806  -15.4047 C   0  0  0  0  0  0  0  0  0  0  0  0
   -0.7896  -51.7616  -21.6181 C   0  0  0  0  0  0  0  0  0  0  0  0
   -0.1990  -54.1155  -22.3630 C   0  0  0  0  0  0  0  0  0  0  0  0
   -1.1862  -53.1807  -21.7558 C   0  0  0  0  0  0  0  0  0  0  0  0
   -1.4007  -53.6981  -20.3155 C   0  0  0  0  0  0  0  0  0  0  0  0
 60 61  1  0  0  0
 61 62  1  0  0  0
 61 59  1  0  0  0
 59 34  1  0  0  0
 34 35  1  0  0  0
 35 36  1  0  0  0
 36 37  2  0  0  0
 36 39  1  0  0  0
 39 52  1  0  0  0
 52 53  1  0  0  0
 53 54  2  0  0  0
 54 55  1  0  0  0
 55 56  2  0  0  0
 56 57  1  0  0  0
 57 58  2  0  0  0
 39 40  1  0  0  0
 40 41  1  0  0  0
 41 42  2  0  0  0
 41 44  1  0  0  0
 44 45  1  0  0  0
 45 46  1  0  0  0
 46 47  2  0  0  0
 47 48  1  0  0  0
 48 49  2  0  0  0
 49 50  1  0  0  0
 50 51  2  0  0  0
 34  1  1  0  0  0
  1  2  2  0  0  0
  1  3  1  0  0  0
  3  5  1  0  0  0
  5 23  1  0  0  0
 23 24  1  0  0  0
 24 25  1  0  0  0
 25 26  1  0  0  0
 26 28  1  0  0  0
 28 29  1  0  0  0
 28 30  2  0  0  0
  5  6  1  0  0  0
  6  7  2  0  0  0
  6  8  1  0  0  0
  8 10  1  0  0  0
 10 16  1  0  0  0
 16 17  1  0  0  0
 17 18  2  0  0  0
 18 19  1  0  0  0
 19 20  2  0  0  0
 20 21  1  0  0  0
 21 22  2  0  0  0
 10 11  1  0  0  0
 11 12  1  0  0  0
 11 13  2  0  0  0
 58 53  1  0  0  0
 51 46  1  0  0  0
 22 17  1  0  0  0
 35 38  1  0  0  0
 40 43  1  0  0  0
  3  4  1  0  0  0
 26 27  1  0  0  0
 29 31  1  0  0  0
 29 32  1  0  0  0
 30 33  1  0  0  0
  8  9  1  0  0  0
 12 14  1  0  0  0
 12 15  1  0  0  0
M  END
> <minimizedAffinity>
-8.39782

> <CNNscore>
0.2075220644

> <CNNaffinity>
6.6186842918

> <CNN_VS>
1.3735229969

> <CNNaffinity_variance>
1.6597044468

$$$$
[H]N=C(N([H])[H])N([H])C([H])([H])C([H])([H])C([H])([H])[C@@]([H])(C(=O)N([H])[C@]([H])(C(=O)N([H])[H])C([H])([H])c1c([H])c([H])c([H])c([H])c1[H])N([H])C(=O)[C@@]([H])(N([H])C(=O)[C@@]([H])(N([H])C(=O)OC([H])([H])c1c([H])c([H])c([H])c([H])c1[H])C([H])([H])c1c([H])c([H])c([H])c([H])c1[H])C([H])([H])C([H])(C([H])([H])[H])C([H])([H])[H]


 62 64  0  0  0  0  0  0  0  0999 V2000
    1.6031  -48.8260  -21.0280 C   0  0  0  0  0  0  0  0  0  0  0  0
    1.2596  -47.6586  -21.2092 O   0  0  0  0  0  0  0  0  0  0  0  0
    1.0130  -49.7674  -20.1785 N   0  0  0  0  0  0  0  0  0  0  0  0
    0.1031  -48.8319  -19.7712 H   0  0  0  0  0  0  0  0  0  0  0  0
    0.4410  -50.6609  -19.3630 C   0  0  0  0  0  0  0  0  0  0  0  0
    0.7290  -50.3011  -17.8945 C   0  0  0  0  0  0  0  0  0  0  0  0
    1.6450  -50.9691  -17.3807 O   0  0  0  0  0  0  0  0  0  0  0  0
    0.0175  -49.3277  -17.2398 N   0  0  0  0  0  0  0  0  0  0  0  0
   -0.7323  -48.8151  -17.8136 H   0  0  0  0  0  0  0  0  0  0  0  0
    0.1140  -48.8513  -15.8635 C   0  0  0  0  0  0  0  0  0  0  0  0
    1.4454  -48.3291  -15.5893 C   0  0  0  0  0  0  0  0  0  0  0  0
    2.0882  -47.2570  -16.2497 N   0  0  0  0  0  0  0  0  0  0  0  0
    2.1587  -48.8682  -14.6591 O   0  0  0  0  0  0  0  0  0  0  0  0
    2.1060  -47.3351  -17.3096 H   0  0  0  0  0  0  0  0  0  0  0  0
    2.5240  -46.4390  -15.7546 H   0  0  0  0  0  0  0  0  0  0  0  0
   -0.4460  -49.8844  -14.9515 C   0  0  0  0  0  0  0  0  0  0  0  0
   -1.8926  -50.0305  -15.0875 C   0  0  0  0  0  0  0  0  0  0  0  0
   -2.4549  -51.2232  -15.4760 C   0  0  0  0  0  0  0  0  0  0  0  0
   -3.8188  -51.3143  -15.5952 C   0  0  0  0  0  0  0  0  0  0  0  0
   -4.5953  -50.2145  -15.3237 C   0  0  0  0  0  0  0  0  0  0  0  0
   -4.0547  -49.0185  -14.9340 C   0  0  0  0  0  0  0  0  0  0  0  0
   -2.6981  -48.9176  -14.8129 C   0  0  0  0  0  0  0  0  0  0  0  0
    0.8238  -52.1367  -19.4942 C   0  0  0  0  0  0  0  0  0  0  0  0
   -0.3549  -53.0359  -19.5936 C   0  0  0  0  0  0  0  0  0  0  0  0
   -0.0742  -54.1766  -20.5420 C   0  0  0  0  0  0  0  0  0  0  0  0
   -1.1693  -54.4502  -21.4214 N   0  0  0  0  0  0  0  0  0  0  0  0
   -2.1261  -54.6575  -21.0586 H   0  0  0  0  0  0  0  0  0  0  0  0
   -0.9424  -54.4443  -22.8302 C   0  0  0  0  0  0  0  0  0  0  0  0
   -1.5878  -55.4599  -23.5652 N   0  0  0  0  0  0  0  0  0  0  0  0
   -0.1858  -53.5504  -23.3919 N   0  0  0  0  0  0  0  0  0  0  0  0
   -2.5656  -55.3348  -23.8723 H   0  0  0  0  0  0  0  0  0  0  0  0
   -1.0885  -56.3294  -23.7941 H   0  0  0  0  0  0  0  0  0  0  0  0
    0.2453  -52.8415  -22.7492 H   0  0  0  0  0  0  0  0  0  0  0  0
    2.8068  -49.2471  -21.8423 C   0  0  0  0  0  0  0  0  0  0  0  0
    2.4568  -49.4206  -23.2237 N   0  0  0  0  0  0  0  0  0  0  0  0
    2.1542  -50.6143  -23.8550 C   0  0  0  0  0  0  0  0  0  0  0  0
    2.1628  -51.6948  -23.2641 O   0  0  0  0  0  0  0  0  0  0  0  0
    2.4389  -48.5171  -23.7861 H   0  0  0  0  0  0  0  0  0  0  0  0
    1.7957  -50.5959  -25.3133 C   0  0  0  0  0  0  0  0  0  0  0  0
    2.6395  -49.6161  -25.9140 N   0  0  0  0  0  0  0  0  0  0  0  0
    4.0362  -49.5014  -25.8463 C   0  0  0  0  0  0  0  0  0  0  0  0
    4.6841  -50.3466  -25.1886 O   0  0  0  0  0  0  0  0  0  0  0  0
    2.1297  -48.8668  -26.4926 H   0  0  0  0  0  0  0  0  0  0  0  0
    4.7098  -48.4842  -26.4883 O   0  0  0  0  0  0  0  0  0  0  0  0
    4.8384  -48.3633  -27.8746 C   0  0  0  0  0  0  0  0  0  0  0  0
    3.8943  -47.3570  -28.4646 C   0  0  0  0  0  0  0  0  0  0  0  0
    3.9911  -47.2281  -29.8483 C   0  0  0  0  0  0  0  0  0  0  0  0
    3.1248  -46.3070  -30.4493 C   0  0  0  0  0  0  0  0  0  0  0  0
    2.2354  -45.5807  -29.7164 C   0  0  0  0  0  0  0  0  0  0  0  0
    2.1628  -45.7300  -28.3494 C   0  0  0  0  0  0  0  0  0  0  0  0
    3.0039  -46.6288  -27.7270 C   0  0  0  0  0  0  0  0  0  0  0  0
    1.8822  -51.9480  -25.9100 C   0  0  0  0  0  0  0  0  0  0  0  0
    0.7609  -52.2580  -26.8186 C   0  0  0  0  0  0  0  0  0  0  0  0
   -0.5609  -52.0945  -26.4667 C   0  0  0  0  0  0  0  0  0  0  0  0
   -1.5997  -52.3732  -27.3514 C   0  0  0  0  0  0  0  0  0  0  0  0
   -1.3151  -52.8285  -28.6219 C   0  0  0  0  0  0  0  0  0  0  0  0
    0.0015  -52.9979  -28.9948 C   0  0  0  0  0  0  0  0  0  0  0  0
    1.0168  -52.7170  -28.1074 C   0  0  0  0  0  0  0  0  0  0  0  0
    4.0199  -48.4593  -21.6495 C   0  0  0  0  0  0  0  0  0  0  0  0
    4.9470  -48.5591  -19.2884 C   0  0  0  0  0  0  0  0  0  0  0  0
    5.0579  -48.9562  -20.7191 C   0  0  0  0  0  0  0  0  0  0  0  0
    4.9231  -50.4957  -20.7234 C   0  0  0  0  0  0  0  0  0  0  0  0
 60 61  1  0  0  0
 61 62  1  0  0  0
 61 59  1  0  0  0
 59 34  1  0  0  0
 34 35  1  0  0  0
 35 36  1  0  0  0
 36 37  2  0  0  0
 36 39  1  0  0  0
 39 52  1  0  0  0
 52 53  1  0  0  0
 53 54  2  0  0  0
 54 55  1  0  0  0
 55 56  2  0  0  0
 56 57  1  0  0  0
 57 58  2  0  0  0
 39 40  1  0  0  0
 40 41  1  0  0  0
 41 42  2  0  0  0
 41 44  1  0  0  0
 44 45  1  0  0  0
 45 46  1  0  0  0
 46 47  2  0  0  0
 47 48  1  0  0  0
 48 49  2  0  0  0
 49 50  1  0  0  0
 50 51  2  0  0  0
 34  1  1  0  0  0
  1  2  2  0  0  0
  1  3  1  0  0  0
  3  5  1  0  0  0
  5 23  1  0  0  0
 23 24  1  0  0  0
 24 25  1  0  0  0
 25 26  1  0  0  0
 26 28  1  0  0  0
 28 29  1  0  0  0
 28 30  2  0  0  0
  5  6  1  0  0  0
  6  7  2  0  0  0
  6  8  1  0  0  0
  8 10  1  0  0  0
 10 16  1  0  0  0
 16 17  1  0  0  0
 17 18  2  0  0  0
 18 19  1  0  0  0
 19 20  2  0  0  0
 20 21  1  0  0  0
 21 22  2  0  0  0
 10 11  1  0  0  0
 11 12  1  0  0  0
 11 13  2  0  0  0
 58 53  1  0  0  0
 51 46  1  0  0  0
 22 17  1  0  0  0
 35 38  1  0  0  0
 40 43  1  0  0  0
  3  4  1  0  0  0
 26 27  1  0  0  0
 29 31  1  0  0  0
 29 32  1  0  0  0
 30 33  1  0  0  0
  8  9  1  0  0  0
 12 14  1  0  0  0
 12 15  1  0  0  0
M  END
> <minimizedAffinity>
-7.77220

> <CNNscore>
0.1904044747

> <CNNaffinity>
7.2226815224

> <CNN_VS>
1.3752309084

> <CNNaffinity_variance>
0.4998775423

$$$$
[H]N=C(N([H])[H])N([H])C([H])([H])C([H])([H])C([H])([H])[C@@]([H])(C(=O)N([H])[C@]([H])(C(=O)N([H])[H])C([H])([H])c1c([H])c([H])c([H])c([H])c1[H])N([H])C(=O)[C@@]([H])(N([H])C(=O)[C@@]([H])(N([H])C(=O)OC([H])([H])c1c([H])c([H])c([H])c([H])c1[H])C([H])([H])c1c([H])c([H])c([H])c([H])c1[H])C([H])([H])C([H])(C([H])([H])[H])C([H])([H])[H]


 62 64  0  0  0  0  0  0  0  0999 V2000
    3.8465  -50.9937  -21.8018 C   0  0  0  0  0  0  0  0  0  0  0  0
    3.8752  -51.8764  -20.9452 O   0  0  0  0  0  0  0  0  0  0  0  0
    3.8540  -49.6095  -21.6017 N   0  0  0  0  0  0  0  0  0  0  0  0
    3.8719  -49.8036  -20.2486 H   0  0  0  0  0  0  0  0  0  0  0  0
    3.8618  -48.2868  -21.3997 C   0  0  0  0  0  0  0  0  0  0  0  0
    3.0260  -47.9340  -20.1564 C   0  0  0  0  0  0  0  0  0  0  0  0
    2.1300  -47.0969  -20.3705 O   0  0  0  0  0  0  0  0  0  0  0  0
    3.2761  -48.5074  -18.9353 N   0  0  0  0  0  0  0  0  0  0  0  0
    4.0685  -49.2321  -18.9002 H   0  0  0  0  0  0  0  0  0  0  0  0
    2.6268  -48.3021  -17.6444 C   0  0  0  0  0  0  0  0  0  0  0  0
    3.1645  -47.1249  -16.9766 C   0  0  0  0  0  0  0  0  0  0  0  0
    2.9226  -45.7737  -17.3147 N   0  0  0  0  0  0  0  0  0  0  0  0
    3.9544  -47.2740  -15.9674 O   0  0  0  0  0  0  0  0  0  0  0  0
    3.0938  -45.5340  -18.3360 H   0  0  0  0  0  0  0  0  0  0  0  0
    2.6019  -45.0451  -16.6287 H   0  0  0  0  0  0  0  0  0  0  0  0
    2.6022  -49.5910  -16.9025 C   0  0  0  0  0  0  0  0  0  0  0  0
    1.4193  -49.7317  -16.0578 C   0  0  0  0  0  0  0  0  0  0  0  0
    0.1542  -49.5708  -16.5708 C   0  0  0  0  0  0  0  0  0  0  0  0
   -0.9290  -49.7076  -15.7396 C   0  0  0  0  0  0  0  0  0  0  0  0
   -0.7293  -50.0030  -14.4133 C   0  0  0  0  0  0  0  0  0  0  0  0
    0.5224  -50.1686  -13.8836 C   0  0  0  0  0  0  0  0  0  0  0  0
    1.6069  -50.0340  -14.7027 C   0  0  0  0  0  0  0  0  0  0  0  0
    3.3415  -47.3646  -22.5046 C   0  0  0  0  0  0  0  0  0  0  0  0
    4.3382  -47.1280  -23.5808 C   0  0  0  0  0  0  0  0  0  0  0  0
    3.6715  -47.1453  -24.9353 C   0  0  0  0  0  0  0  0  0  0  0  0
    4.3725  -46.3665  -25.9096 N   0  0  0  0  0  0  0  0  0  0  0  0
    3.9261  -45.5513  -26.3853 H   0  0  0  0  0  0  0  0  0  0  0  0
    5.7146  -46.7199  -26.2413 C   0  0  0  0  0  0  0  0  0  0  0  0
    5.8893  -47.9751  -26.8596 N   0  0  0  0  0  0  0  0  0  0  0  0
    6.7087  -45.9240  -25.9859 N   0  0  0  0  0  0  0  0  0  0  0  0
    5.7695  -48.0702  -27.8807 H   0  0  0  0  0  0  0  0  0  0  0  0
    6.1323  -48.8000  -26.2955 H   0  0  0  0  0  0  0  0  0  0  0  0
    6.4640  -45.0146  -25.5226 H   0  0  0  0  0  0  0  0  0  0  0  0
    3.8008  -51.5148  -23.2215 C   0  0  0  0  0  0  0  0  0  0  0  0
    2.4674  -51.9051  -23.5825 N   0  0  0  0  0  0  0  0  0  0  0  0
    2.1103  -52.8199  -24.5574 C   0  0  0  0  0  0  0  0  0  0  0  0
    2.9432  -53.4105  -25.2460 O   0  0  0  0  0  0  0  0  0  0  0  0
    1.7038  -51.4203  -23.0212 H   0  0  0  0  0  0  0  0  0  0  0  0
    0.6545  -53.1110  -24.7841 C   0  0  0  0  0  0  0  0  0  0  0  0
    0.1490  -53.5858  -23.5384 N   0  0  0  0  0  0  0  0  0  0  0  0
   -0.8716  -54.5197  -23.3048 C   0  0  0  0  0  0  0  0  0  0  0  0
   -1.4504  -55.0446  -24.2827 O   0  0  0  0  0  0  0  0  0  0  0  0
    0.6157  -53.1654  -22.6657 H   0  0  0  0  0  0  0  0  0  0  0  0
   -1.2486  -54.8739  -22.0270 O   0  0  0  0  0  0  0  0  0  0  0  0
   -1.8269  -54.0063  -21.0965 C   0  0  0  0  0  0  0  0  0  0  0  0
   -0.9208  -52.8746  -20.7092 C   0  0  0  0  0  0  0  0  0  0  0  0
   -0.0892  -53.1554  -19.6274 C   0  0  0  0  0  0  0  0  0  0  0  0
    0.7826  -52.1339  -19.2314 C   0  0  0  0  0  0  0  0  0  0  0  0
    0.8137  -50.9334  -19.8742 C   0  0  0  0  0  0  0  0  0  0  0  0
   -0.0207  -50.6849  -20.9411 C   0  0  0  0  0  0  0  0  0  0  0  0
   -0.8923  -51.6707  -21.3549 C   0  0  0  0  0  0  0  0  0  0  0  0
   -0.0532  -51.9358  -25.3406 C   0  0  0  0  0  0  0  0  0  0  0  0
   -0.6524  -52.1886  -26.6658 C   0  0  0  0  0  0  0  0  0  0  0  0
    0.0961  -52.4231  -27.7982 C   0  0  0  0  0  0  0  0  0  0  0  0
   -0.4947  -52.6814  -29.0326 C   0  0  0  0  0  0  0  0  0  0  0  0
   -1.8694  -52.7060  -29.1433 C   0  0  0  0  0  0  0  0  0  0  0  0
   -2.6372  -52.4749  -28.0216 C   0  0  0  0  0  0  0  0  0  0  0  0
   -2.0364  -52.2216  -26.8083 C   0  0  0  0  0  0  0  0  0  0  0  0
    4.4521  -50.6863  -24.2308 C   0  0  0  0  0  0  0  0  0  0  0  0
    6.9077  -50.2028  -23.8055 C   0  0  0  0  0  0  0  0  0  0  0  0
    5.8689  -50.9480  -24.5688 C   0  0  0  0  0  0  0  0  0  0  0  0
    6.1119  -52.4372  -24.2350 C   0  0  0  0  0  0  0  0  0  0  0  0
 60 61  1  0  0  0
 61 62  1  0  0  0
 61 59  1  0  0  0
 59 34  1  0  0  0
 34 35  1  0  0  0
 35 36  1  0  0  0
 36 37  2  0  0  0
 36 39  1  0  0  0
 39 52  1  0  0  0
 52 53  1  0  0  0
 53 54  2  0  0  0
 54 55  1  0  0  0
 55 56  2  0  0  0
 56 57  1  0  0  0
 57 58  2  0  0  0
 39 40  1  0  0  0
 40 41  1  0  0  0
 41 42  2  0  0  0
 41 44  1  0  0  0
 44 45  1  0  0  0
 45 46  1  0  0  0
 46 47  2  0  0  0
 47 48  1  0  0  0
 48 49  2  0  0  0
 49 50  1  0  0  0
 50 51  2  0  0  0
 34  1  1  0  0  0
  1  2  2  0  0  0
  1  3  1  0  0  0
  3  5  1  0  0  0
  5 23  1  0  0  0
 23 24  1  0  0  0
 24 25  1  0  0  0
 25 26  1  0  0  0
 26 28  1  0  0  0
 28 29  1  0  0  0
 28 30  2  0  0  0
  5  6  1  0  0  0
  6  7  2  0  0  0
  6  8  1  0  0  0
  8 10  1  0  0  0
 10 16  1  0  0  0
 16 17  1  0  0  0
 17 18  2  0  0  0
 18 19  1  0  0  0
 19 20  2  0  0  0
 20 21  1  0  0  0
 21 22  2  0  0  0
 10 11  1  0  0  0
 11 12  1  0  0  0
 11 13  2  0  0  0
 58 53  1  0  0  0
 51 46  1  0  0  0
 22 17  1  0  0  0
 35 38  1  0  0  0
 40 43  1  0  0  0
  3  4  1  0  0  0
 26 27  1  0  0  0
 29 31  1  0  0  0
 29 32  1  0  0  0
 30 33  1  0  0  0
  8  9  1  0  0  0
 12 14  1  0  0  0
 12 15  1  0  0  0
M  END
> <minimizedAffinity>
-7.08900

> <CNNscore>
0.1609580815

> <CNNaffinity>
7.1813707352

> <CNN_VS>
1.1558996439

> <CNNaffinity_variance>
0.6506968737

$$$$
[H]N=C(N([H])[H])N([H])C([H])([H])C([H])([H])C([H])([H])[C@@]([H])(C(=O)N([H])[C@]([H])(C(=O)N([H])[H])C([H])([H])c1c([H])c([H])c([H])c([H])c1[H])N([H])C(=O)[C@@]([H])(N([H])C(=O)[C@@]([H])(N([H])C(=O)OC([H])([H])c1c([H])c([H])c([H])c([H])c1[H])C([H])([H])c1c([H])c([H])c([H])c([H])c1[H])C([H])([H])C([H])(C([H])([H])[H])C([H])([H])[H]


 62 64  0  0  0  0  0  0  0  0999 V2000
    3.4734  -50.9874  -20.9593 C   0  0  0  0  0  0  0  0  0  0  0  0
    3.6885  -51.9476  -20.2207 O   0  0  0  0  0  0  0  0  0  0  0  0
    3.0974  -49.6924  -20.5882 N   0  0  0  0  0  0  0  0  0  0  0  0
    3.0885  -50.0698  -19.2742 H   0  0  0  0  0  0  0  0  0  0  0  0
    2.7381  -48.4563  -20.2228 C   0  0  0  0  0  0  0  0  0  0  0  0
    3.5758  -47.4127  -20.9829 C   0  0  0  0  0  0  0  0  0  0  0  0
    4.6839  -47.1800  -20.4659 O   0  0  0  0  0  0  0  0  0  0  0  0
    3.1101  -46.8094  -22.1238 N   0  0  0  0  0  0  0  0  0  0  0  0
    2.1424  -47.1224  -22.4699 H   0  0  0  0  0  0  0  0  0  0  0  0
    3.7247  -45.7948  -22.9743 C   0  0  0  0  0  0  0  0  0  0  0  0
    4.4169  -44.7968  -22.1708 C   0  0  0  0  0  0  0  0  0  0  0  0
    5.8145  -44.6616  -22.0061 N   0  0  0  0  0  0  0  0  0  0  0  0
    3.7301  -43.9230  -21.5155 O   0  0  0  0  0  0  0  0  0  0  0  0
    6.3154  -45.5524  -21.7142 H   0  0  0  0  0  0  0  0  0  0  0  0
    6.3386  -43.7625  -22.1515 H   0  0  0  0  0  0  0  0  0  0  0  0
    2.7281  -45.3332  -23.9774 C   0  0  0  0  0  0  0  0  0  0  0  0
    2.9282  -45.9408  -25.2902 C   0  0  0  0  0  0  0  0  0  0  0  0
    2.2187  -45.5152  -26.3878 C   0  0  0  0  0  0  0  0  0  0  0  0
    2.4354  -46.1176  -27.6015 C   0  0  0  0  0  0  0  0  0  0  0  0
    3.3563  -47.1322  -27.6967 C   0  0  0  0  0  0  0  0  0  0  0  0
    4.0740  -47.5693  -26.6158 C   0  0  0  0  0  0  0  0  0  0  0  0
    3.8650  -46.9763  -25.4034 C   0  0  0  0  0  0  0  0  0  0  0  0
    2.8460  -48.0575  -18.7492 C   0  0  0  0  0  0  0  0  0  0  0  0
    2.6750  -49.2063  -17.8226 C   0  0  0  0  0  0  0  0  0  0  0  0
    2.6627  -48.7345  -16.3884 C   0  0  0  0  0  0  0  0  0  0  0  0
    2.5303  -49.8079  -15.4517 N   0  0  0  0  0  0  0  0  0  0  0  0
    1.6039  -50.0769  -15.0521 H   0  0  0  0  0  0  0  0  0  0  0  0
    3.6982  -50.5234  -15.0510 C   0  0  0  0  0  0  0  0  0  0  0  0
    4.3506  -50.0458  -13.8958 N   0  0  0  0  0  0  0  0  0  0  0  0
    4.1248  -51.5534  -15.7173 N   0  0  0  0  0  0  0  0  0  0  0  0
    4.0294  -50.3418  -12.9602 H   0  0  0  0  0  0  0  0  0  0  0  0
    5.1451  -49.3985  -13.9811 H   0  0  0  0  0  0  0  0  0  0  0  0
    3.5625  -51.8214  -16.5620 H   0  0  0  0  0  0  0  0  0  0  0  0
    3.6513  -51.2906  -22.4309 C   0  0  0  0  0  0  0  0  0  0  0  0
    2.4234  -51.7553  -23.0115 N   0  0  0  0  0  0  0  0  0  0  0  0
    2.2923  -52.5864  -24.1101 C   0  0  0  0  0  0  0  0  0  0  0  0
    3.2641  -53.0227  -24.7282 O   0  0  0  0  0  0  0  0  0  0  0  0
    1.5476  -51.4037  -22.5193 H   0  0  0  0  0  0  0  0  0  0  0  0
    0.9161  -52.9783  -24.5661 C   0  0  0  0  0  0  0  0  0  0  0  0
    0.2345  -53.4461  -23.4045 N   0  0  0  0  0  0  0  0  0  0  0  0
   -0.7588  -54.4323  -23.3081 C   0  0  0  0  0  0  0  0  0  0  0  0
   -1.1353  -55.0191  -24.3478 O   0  0  0  0  0  0  0  0  0  0  0  0
    0.5241  -52.9734  -22.4832 H   0  0  0  0  0  0  0  0  0  0  0  0
   -1.3258  -54.7713  -22.0982 O   0  0  0  0  0  0  0  0  0  0  0  0
   -2.1289  -53.9252  -21.3287 C   0  0  0  0  0  0  0  0  0  0  0  0
   -1.3507  -53.1482  -20.3075 C   0  0  0  0  0  0  0  0  0  0  0  0
   -0.6003  -52.1016  -20.8387 C   0  0  0  0  0  0  0  0  0  0  0  0
    0.1382  -51.3397  -19.9253 C   0  0  0  0  0  0  0  0  0  0  0  0
    0.1183  -51.6097  -18.5903 C   0  0  0  0  0  0  0  0  0  0  0  0
   -0.6336  -52.6514  -18.0945 C   0  0  0  0  0  0  0  0  0  0  0  0
   -1.3714  -53.4218  -18.9690 C   0  0  0  0  0  0  0  0  0  0  0  0
    0.2457  -51.8693  -25.2819 C   0  0  0  0  0  0  0  0  0  0  0  0
   -0.1824  -52.2302  -26.6477 C   0  0  0  0  0  0  0  0  0  0  0  0
    0.6989  -52.5975  -27.6407 C   0  0  0  0  0  0  0  0  0  0  0  0
    0.2667  -52.9553  -28.9153 C   0  0  0  0  0  0  0  0  0  0  0  0
   -1.0807  -52.9463  -29.2104 C   0  0  0  0  0  0  0  0  0  0  0  0
   -1.9798  -52.5828  -28.2303 C   0  0  0  0  0  0  0  0  0  0  0  0
   -1.5352  -52.2323  -26.9746 C   0  0  0  0  0  0  0  0  0  0  0  0
    4.3096  -50.2578  -23.2242 C   0  0  0  0  0  0  0  0  0  0  0  0
    6.5160  -50.8149  -24.3493 C   0  0  0  0  0  0  0  0  0  0  0  0
    5.7874  -50.1798  -23.2166 C   0  0  0  0  0  0  0  0  0  0  0  0
    6.1287  -48.6754  -23.3085 C   0  0  0  0  0  0  0  0  0  0  0  0
 60 61  1  0  0  0
 61 62  1  0  0  0
 61 59  1  0  0  0
 59 34  1  0  0  0
 34 35  1  0  0  0
 35 36  1  0  0  0
 36 37  2  0  0  0
 36 39  1  0  0  0
 39 52  1  0  0  0
 52 53  1  0  0  0
 53 54  2  0  0  0
 54 55  1  0  0  0
 55 56  2  0  0  0
 56 57  1  0  0  0
 57 58  2  0  0  0
 39 40  1  0  0  0
 40 41  1  0  0  0
 41 42  2  0  0  0
 41 44  1  0  0  0
 44 45  1  0  0  0
 45 46  1  0  0  0
 46 47  2  0  0  0
 47 48  1  0  0  0
 48 49  2  0  0  0
 49 50  1  0  0  0
 50 51  2  0  0  0
 34  1  1  0  0  0
  1  2  2  0  0  0
  1  3  1  0  0  0
  3  5  1  0  0  0
  5 23  1  0  0  0
 23 24  1  0  0  0
 24 25  1  0  0  0
 25 26  1  0  0  0
 26 28  1  0  0  0
 28 29  1  0  0  0
 28 30  2  0  0  0
  5  6  1  0  0  0
  6  7  2  0  0  0
  6  8  1  0  0  0
  8 10  1  0  0  0
 10 16  1  0  0  0
 16 17  1  0  0  0
 17 18  2  0  0  0
 18 19  1  0  0  0
 19 20  2  0  0  0
 20 21  1  0  0  0
 21 22  2  0  0  0
 10 11  1  0  0  0
 11 12  1  0  0  0
 11 13  2  0  0  0
 58 53  1  0  0  0
 51 46  1  0  0  0
 22 17  1  0  0  0
 35 38  1  0  0  0
 40 43  1  0  0  0
  3  4  1  0  0  0
 26 27  1  0  0  0
 29 31  1  0  0  0
 29 32  1  0  0  0
 30 33  1  0  0  0
  8  9  1  0  0  0
 12 14  1  0  0  0
 12 15  1  0  0  0
M  END
> <minimizedAffinity>
-7.64415

> <CNNscore>
0.1412720233

> <CNNaffinity>
7.0215735435

> <CNN_VS>
0.9919518828

> <CNNaffinity_variance>
0.7218033671

$$$$
[H]N=C(N([H])[H])N([H])C([H])([H])C([H])([H])C([H])([H])[C@@]([H])(C(=O)N([H])[C@]([H])(C(=O)N([H])[H])C([H])([H])c1c([H])c([H])c([H])c([H])c1[H])N([H])C(=O)[C@@]([H])(N([H])C(=O)[C@@]([H])(N([H])C(=O)OC([H])([H])c1c([H])c([H])c([H])c([H])c1[H])C([H])([H])c1c([H])c([H])c([H])c([H])c1[H])C([H])([H])C([H])(C([H])([H])[H])C([H])([H])[H]


 62 64  0  0  0  0  0  0  0  0999 V2000
    3.1115  -50.6861  -26.8818 C   0  0  0  0  0  0  0  0  0  0  0  0
    3.0582  -51.4090  -27.8759 O   0  0  0  0  0  0  0  0  0  0  0  0
    3.8330  -49.4978  -26.7282 N   0  0  0  0  0  0  0  0  0  0  0  0
    4.3245  -49.6303  -27.9970 H   0  0  0  0  0  0  0  0  0  0  0  0
    4.5269  -48.3619  -26.5913 C   0  0  0  0  0  0  0  0  0  0  0  0
    3.7256  -47.3469  -25.7568 C   0  0  0  0  0  0  0  0  0  0  0  0
    2.5860  -47.1150  -26.2006 O   0  0  0  0  0  0  0  0  0  0  0  0
    4.2528  -46.7657  -24.6313 N   0  0  0  0  0  0  0  0  0  0  0  0
    5.2427  -47.0755  -24.3515 H   0  0  0  0  0  0  0  0  0  0  0  0
    3.6799  -45.7793  -23.7207 C   0  0  0  0  0  0  0  0  0  0  0  0
    2.8048  -44.8615  -24.4367 C   0  0  0  0  0  0  0  0  0  0  0  0
    3.1777  -43.9560  -25.4563 N   0  0  0  0  0  0  0  0  0  0  0  0
    1.5483  -44.8268  -24.1457 O   0  0  0  0  0  0  0  0  0  0  0  0
    3.9935  -43.3209  -25.2094 H   0  0  0  0  0  0  0  0  0  0  0  0
    2.7002  -43.8943  -26.3903 H   0  0  0  0  0  0  0  0  0  0  0  0
    4.7637  -45.2130  -22.8737 C   0  0  0  0  0  0  0  0  0  0  0  0
    4.9699  -45.9709  -21.6426 C   0  0  0  0  0  0  0  0  0  0  0  0
    6.0264  -45.6982  -20.8066 C   0  0  0  0  0  0  0  0  0  0  0  0
    6.1846  -46.4386  -19.6622 C   0  0  0  0  0  0  0  0  0  0  0  0
    5.2854  -47.4357  -19.3735 C   0  0  0  0  0  0  0  0  0  0  0  0
    4.2259  -47.7217  -20.1923 C   0  0  0  0  0  0  0  0  0  0  0  0
    4.0602  -46.9907  -21.3340 C   0  0  0  0  0  0  0  0  0  0  0  0
    4.9536  -47.5975  -27.8465 C   0  0  0  0  0  0  0  0  0  0  0  0
    6.2416  -48.0785  -28.4098 C   0  0  0  0  0  0  0  0  0  0  0  0
    6.5314  -47.4003  -29.7272 C   0  0  0  0  0  0  0  0  0  0  0  0
    6.9189  -48.3203  -30.7522 N   0  0  0  0  0  0  0  0  0  0  0  0
    7.9225  -48.5136  -30.9657 H   0  0  0  0  0  0  0  0  0  0  0  0
    5.9042  -48.9846  -31.5041 C   0  0  0  0  0  0  0  0  0  0  0  0
    5.6706  -50.3346  -31.1707 N   0  0  0  0  0  0  0  0  0  0  0  0
    5.2399  -48.3717  -32.4369 N   0  0  0  0  0  0  0  0  0  0  0  0
    5.0392  -50.5730  -30.3894 H   0  0  0  0  0  0  0  0  0  0  0  0
    6.1312  -51.0854  -31.7016 H   0  0  0  0  0  0  0  0  0  0  0  0
    5.4965  -47.3675  -32.6018 H   0  0  0  0  0  0  0  0  0  0  0  0
    2.2818  -51.1793  -25.7167 C   0  0  0  0  0  0  0  0  0  0  0  0
    2.8031  -50.6902  -24.4718 N   0  0  0  0  0  0  0  0  0  0  0  0
    3.5457  -51.4063  -23.5494 C   0  0  0  0  0  0  0  0  0  0  0  0
    3.8389  -52.5911  -23.7141 O   0  0  0  0  0  0  0  0  0  0  0  0
    2.5748  -49.6695  -24.2740 H   0  0  0  0  0  0  0  0  0  0  0  0
    4.0187  -50.7160  -22.3023 C   0  0  0  0  0  0  0  0  0  0  0  0
    3.0153  -50.9510  -21.3172 N   0  0  0  0  0  0  0  0  0  0  0  0
    1.7777  -50.3100  -21.1558 C   0  0  0  0  0  0  0  0  0  0  0  0
    1.4533  -49.4047  -21.9571 O   0  0  0  0  0  0  0  0  0  0  0  0
    3.2460  -51.7224  -20.6046 H   0  0  0  0  0  0  0  0  0  0  0  0
    0.9119  -50.6553  -20.1402 O   0  0  0  0  0  0  0  0  0  0  0  0
    0.7894  -51.9375  -19.5978 C   0  0  0  0  0  0  0  0  0  0  0  0
   -0.0522  -52.8513  -20.4396 C   0  0  0  0  0  0  0  0  0  0  0  0
    0.5270  -53.1972  -21.6585 C   0  0  0  0  0  0  0  0  0  0  0  0
   -0.2152  -54.0557  -22.4784 C   0  0  0  0  0  0  0  0  0  0  0  0
   -1.4358  -54.5266  -22.0989 C   0  0  0  0  0  0  0  0  0  0  0  0
   -1.9827  -54.1670  -20.8874 C   0  0  0  0  0  0  0  0  0  0  0  0
   -1.2769  -53.3212  -20.0572 C   0  0  0  0  0  0  0  0  0  0  0  0
    5.3820  -51.1526  -21.9247 C   0  0  0  0  0  0  0  0  0  0  0  0
    6.4010  -50.0984  -22.0959 C   0  0  0  0  0  0  0  0  0  0  0  0
    6.3989  -49.2132  -23.1514 C   0  0  0  0  0  0  0  0  0  0  0  0
    7.3597  -48.2130  -23.2773 C   0  0  0  0  0  0  0  0  0  0  0  0
    8.3514  -48.0909  -22.3263 C   0  0  0  0  0  0  0  0  0  0  0  0
    8.3710  -48.9661  -21.2611 C   0  0  0  0  0  0  0  0  0  0  0  0
    7.4126  -49.9494  -21.1517 C   0  0  0  0  0  0  0  0  0  0  0  0
    0.8374  -51.0141  -25.8414 C   0  0  0  0  0  0  0  0  0  0  0  0
   -1.4193  -52.1521  -26.0803 C   0  0  0  0  0  0  0  0  0  0  0  0
   -0.0469  -52.1513  -25.5025 C   0  0  0  0  0  0  0  0  0  0  0  0
    0.6396  -53.4058  -26.0883 C   0  0  0  0  0  0  0  0  0  0  0  0
 60 61  1  0  0  0
 61 62  1  0  0  0
 61 59  1  0  0  0
 59 34  1  0  0  0
 34 35  1  0  0  0
 35 36  1  0  0  0
 36 37  2  0  0  0
 36 39  1  0  0  0
 39 52  1  0  0  0
 52 53  1  0  0  0
 53 54  2  0  0  0
 54 55  1  0  0  0
 55 56  2  0  0  0
 56 57  1  0  0  0
 57 58  2  0  0  0
 39 40  1  0  0  0
 40 41  1  0  0  0
 41 42  2  0  0  0
 41 44  1  0  0  0
 44 45  1  0  0  0
 45 46  1  0  0  0
 46 47  2  0  0  0
 47 48  1  0  0  0
 48 49  2  0  0  0
 49 50  1  0  0  0
 50 51  2  0  0  0
 34  1  1  0  0  0
  1  2  2  0  0  0
  1  3  1  0  0  0
  3  5  1  0  0  0
  5 23  1  0  0  0
 23 24  1  0  0  0
 24 25  1  0  0  0
 25 26  1  0  0  0
 26 28  1  0  0  0
 28 29  1  0  0  0
 28 30  2  0  0  0
  5  6  1  0  0  0
  6  7  2  0  0  0
  6  8  1  0  0  0
  8 10  1  0  0  0
 10 16  1  0  0  0
 16 17  1  0  0  0
 17 18  2  0  0  0
 18 19  1  0  0  0
 19 20  2  0  0  0
 20 21  1  0  0  0
 21 22  2  0  0  0
 10 11  1  0  0  0
 11 12  1  0  0  0
 11 13  2  0  0  0
 58 53  1  0  0  0
 51 46  1  0  0  0
 22 17  1  0  0  0
 35 38  1  0  0  0
 40 43  1  0  0  0
  3  4  1  0  0  0
 26 27  1  0  0  0
 29 31  1  0  0  0
 29 32  1  0  0  0
 30 33  1  0  0  0
  8  9  1  0  0  0
 12 14  1  0  0  0
 12 15  1  0  0  0
M  END
> <minimizedAffinity>
-6.67458

> <CNNscore>
0.1353376210

> <CNNaffinity>
6.7315230370

> <CNN_VS>
0.9110283256

> <CNNaffinity_variance>
1.2589842081

$$$$
[H]N=C(N([H])[H])N([H])C([H])([H])C([H])([H])C([H])([H])[C@@]([H])(C(=O)N([H])[C@]([H])(C(=O)N([H])[H])C([H])([H])c1c([H])c([H])c([H])c([H])c1[H])N([H])C(=O)[C@@]([H])(N([H])C(=O)[C@@]([H])(N([H])C(=O)OC([H])([H])c1c([H])c([H])c([H])c([H])c1[H])C([H])([H])c1c([H])c([H])c([H])c([H])c1[H])C([H])([H])C([H])(C([H])([H])[H])C([H])([H])[H]


 62 64  0  0  0  0  0  0  0  0999 V2000
    1.0993  -50.5633  -22.2867 C   0  0  0  0  0  0  0  0  0  0  0  0
    1.2952  -49.4017  -21.9316 O   0  0  0  0  0  0  0  0  0  0  0  0
    1.2943  -51.1116  -23.5585 N   0  0  0  0  0  0  0  0  0  0  0  0
    1.6897  -49.8895  -24.0265 H   0  0  0  0  0  0  0  0  0  0  0  0
    1.4844  -51.6267  -24.7787 C   0  0  0  0  0  0  0  0  0  0  0  0
    2.9338  -51.3865  -25.2372 C   0  0  0  0  0  0  0  0  0  0  0  0
    3.1575  -51.7369  -26.4105 O   0  0  0  0  0  0  0  0  0  0  0  0
    3.8712  -50.8366  -24.3997 N   0  0  0  0  0  0  0  0  0  0  0  0
    3.5329  -50.5609  -23.4180 H   0  0  0  0  0  0  0  0  0  0  0  0
    5.2840  -50.5466  -24.6238 C   0  0  0  0  0  0  0  0  0  0  0  0
    6.0967  -51.0571  -23.5285 C   0  0  0  0  0  0  0  0  0  0  0  0
    5.6530  -51.8357  -22.4350 N   0  0  0  0  0  0  0  0  0  0  0  0
    7.3599  -50.7965  -23.5015 O   0  0  0  0  0  0  0  0  0  0  0  0
    4.8214  -51.4316  -21.9107 H   0  0  0  0  0  0  0  0  0  0  0  0
    6.0953  -52.7427  -22.1422 H   0  0  0  0  0  0  0  0  0  0  0  0
    5.4311  -49.1183  -25.0122 C   0  0  0  0  0  0  0  0  0  0  0  0
    4.6901  -48.2171  -24.1338 C   0  0  0  0  0  0  0  0  0  0  0  0
    3.5401  -47.5949  -24.5578 C   0  0  0  0  0  0  0  0  0  0  0  0
    2.8782  -46.7524  -23.7006 C   0  0  0  0  0  0  0  0  0  0  0  0
    3.3756  -46.5478  -22.4368 C   0  0  0  0  0  0  0  0  0  0  0  0
    4.5183  -47.1593  -21.9952 C   0  0  0  0  0  0  0  0  0  0  0  0
    5.1846  -47.9992  -22.8413 C   0  0  0  0  0  0  0  0  0  0  0  0
    0.6132  -51.1333  -25.9361 C   0  0  0  0  0  0  0  0  0  0  0  0
   -0.6731  -51.8683  -26.0493 C   0  0  0  0  0  0  0  0  0  0  0  0
   -0.7888  -52.5315  -27.4007 C   0  0  0  0  0  0  0  0  0  0  0  0
    0.4652  -52.6235  -28.0835 N   0  0  0  0  0  0  0  0  0  0  0  0
    0.8684  -51.8122  -28.6026 H   0  0  0  0  0  0  0  0  0  0  0  0
    1.1776  -53.8597  -28.0569 C   0  0  0  0  0  0  0  0  0  0  0  0
    0.5501  -54.9208  -27.3724 N   0  0  0  0  0  0  0  0  0  0  0  0
    2.3339  -53.9890  -28.6340 N   0  0  0  0  0  0  0  0  0  0  0  0
   -0.1502  -55.5059  -27.8553 H   0  0  0  0  0  0  0  0  0  0  0  0
    0.7848  -55.1127  -26.3897 H   0  0  0  0  0  0  0  0  0  0  0  0
    2.7078  -53.1339  -29.1142 H   0  0  0  0  0  0  0  0  0  0  0  0
    0.5911  -51.4666  -21.1844 C   0  0  0  0  0  0  0  0  0  0  0  0
    0.8082  -50.8748  -19.8947 N   0  0  0  0  0  0  0  0  0  0  0  0
    1.8731  -51.1156  -19.0445 C   0  0  0  0  0  0  0  0  0  0  0  0
    2.7770  -51.9039  -19.3247 O   0  0  0  0  0  0  0  0  0  0  0  0
    0.0524  -50.1866  -19.5976 H   0  0  0  0  0  0  0  0  0  0  0  0
    1.9366  -50.3869  -17.7328 C   0  0  0  0  0  0  0  0  0  0  0  0
    1.1530  -51.1512  -16.8193 N   0  0  0  0  0  0  0  0  0  0  0  0
    0.5823  -50.7477  -15.6027 C   0  0  0  0  0  0  0  0  0  0  0  0
    0.7447  -49.5680  -15.2171 O   0  0  0  0  0  0  0  0  0  0  0  0
    0.9831  -52.1732  -17.1067 H   0  0  0  0  0  0  0  0  0  0  0  0
   -0.1537  -51.6170  -14.8261 O   0  0  0  0  0  0  0  0  0  0  0  0
   -1.0598  -51.2295  -13.8352 C   0  0  0  0  0  0  0  0  0  0  0  0
   -2.3736  -50.7653  -14.3923 C   0  0  0  0  0  0  0  0  0  0  0  0
   -3.1428  -51.7799  -14.9577 C   0  0  0  0  0  0  0  0  0  0  0  0
   -4.3829  -51.3999  -15.4848 C   0  0  0  0  0  0  0  0  0  0  0  0
   -4.8105  -50.1073  -15.4422 C   0  0  0  0  0  0  0  0  0  0  0  0
   -4.0277  -49.1258  -14.8764 C   0  0  0  0  0  0  0  0  0  0  0  0
   -2.7997  -49.4678  -14.3494 C   0  0  0  0  0  0  0  0  0  0  0  0
    3.3358  -50.1491  -17.3118 C   0  0  0  0  0  0  0  0  0  0  0  0
    3.8182  -48.7906  -17.6292 C   0  0  0  0  0  0  0  0  0  0  0  0
    4.9645  -48.5488  -18.3539 C   0  0  0  0  0  0  0  0  0  0  0  0
    5.3856  -47.2568  -18.6590 C   0  0  0  0  0  0  0  0  0  0  0  0
    4.6455  -46.1749  -18.2298 C   0  0  0  0  0  0  0  0  0  0  0  0
    3.4940  -46.3950  -17.5039 C   0  0  0  0  0  0  0  0  0  0  0  0
    3.0917  -47.6795  -17.2114 C   0  0  0  0  0  0  0  0  0  0  0  0
   -0.7587  -51.9935  -21.3571 C   0  0  0  0  0  0  0  0  0  0  0  0
   -0.6596  -54.0109  -22.8949 C   0  0  0  0  0  0  0  0  0  0  0  0
   -0.9419  -53.4499  -21.5448 C   0  0  0  0  0  0  0  0  0  0  0  0
    0.0804  -54.1263  -20.6036 C   0  0  0  0  0  0  0  0  0  0  0  0
 60 61  1  0  0  0
 61 62  1  0  0  0
 61 59  1  0  0  0
 59 34  1  0  0  0
 34 35  1  0  0  0
 35 36  1  0  0  0
 36 37  2  0  0  0
 36 39  1  0  0  0
 39 52  1  0  0  0
 52 53  1  0  0  0
 53 54  2  0  0  0
 54 55  1  0  0  0
 55 56  2  0  0  0
 56 57  1  0  0  0
 57 58  2  0  0  0
 39 40  1  0  0  0
 40 41  1  0  0  0
 41 42  2  0  0  0
 41 44  1  0  0  0
 44 45  1  0  0  0
 45 46  1  0  0  0
 46 47  2  0  0  0
 47 48  1  0  0  0
 48 49  2  0  0  0
 49 50  1  0  0  0
 50 51  2  0  0  0
 34  1  1  0  0  0
  1  2  2  0  0  0
  1  3  1  0  0  0
  3  5  1  0  0  0
  5 23  1  0  0  0
 23 24  1  0  0  0
 24 25  1  0  0  0
 25 26  1  0  0  0
 26 28  1  0  0  0
 28 29  1  0  0  0
 28 30  2  0  0  0
  5  6  1  0  0  0
  6  7  2  0  0  0
  6  8  1  0  0  0
  8 10  1  0  0  0
 10 16  1  0  0  0
 16 17  1  0  0  0
 17 18  2  0  0  0
 18 19  1  0  0  0
 19 20  2  0  0  0
 20 21  1  0  0  0
 21 22  2  0  0  0
 10 11  1  0  0  0
 11 12  1  0  0  0
 11 13  2  0  0  0
 58 53  1  0  0  0
 51 46  1  0  0  0
 22 17  1  0  0  0
 35 38  1  0  0  0
 40 43  1  0  0  0
  3  4  1  0  0  0
 26 27  1  0  0  0
 29 31  1  0  0  0
 29 32  1  0  0  0
 30 33  1  0  0  0
  8  9  1  0  0  0
 12 14  1  0  0  0
 12 15  1  0  0  0
M  END
> <minimizedAffinity>
-7.17914

> <CNNscore>
0.1210152283

> <CNNaffinity>
6.6527566910

> <CNN_VS>
0.8050848842

> <CNNaffinity_variance>
1.5810673237

$$$$
[H]N=C(N([H])[H])N([H])C([H])([H])C([H])([H])C([H])([H])[C@@]([H])(C(=O)OC([H])([H])c1c([H])c([H])c([H])c([H])c1[H])N([H])C(=O)[C@@]([H])(N([H])C(=O)[C@@]([H])(N([H])C(=O)C([H])([H])[H])C([H])([H])c1c([H])c([H])c([H])c([H])c1[H])C([H])([H])c1c([H])c([H])c([H])c([H])c1[H]


 51 53  0  0  0  0  0  0  0  0999 V2000
    1.9619  -51.7242  -20.3296 C   0  0  0  0  0  0  0  0  0  0  0  0
    2.7449  -52.5922  -19.8715 O   0  0  0  0  0  0  0  0  0  0  0  0
    0.6502  -52.0728  -20.6241 N   0  0  0  0  0  0  0  0  0  0  0  0
   -0.0023  -51.3712  -21.0266 H   0  0  0  0  0  0  0  0  0  0  0  0
    0.1095  -53.4202  -20.3966 C   0  0  0  0  0  0  0  0  0  0  0  0
   -0.7151  -53.8153  -21.5777 C   0  0  0  0  0  0  0  0  0  0  0  0
   -1.7995  -54.4167  -21.3593 O   0  0  0  0  0  0  0  0  0  0  0  0
   -0.3958  -53.5753  -22.8895 O   0  0  0  0  0  0  0  0  0  0  0  0
   -0.6032  -54.5117  -23.9284 C   0  0  0  0  0  0  0  0  0  0  0  0
   -0.5125  -53.8280  -25.2642 C   0  0  0  0  0  0  0  0  0  0  0  0
   -1.0743  -52.6020  -25.4559 C   0  0  0  0  0  0  0  0  0  0  0  0
   -0.9790  -51.9944  -26.6876 C   0  0  0  0  0  0  0  0  0  0  0  0
   -0.3320  -52.5751  -27.7549 C   0  0  0  0  0  0  0  0  0  0  0  0
    0.2377  -53.8164  -27.5632 C   0  0  0  0  0  0  0  0  0  0  0  0
    0.1390  -54.4166  -26.3326 C   0  0  0  0  0  0  0  0  0  0  0  0
   -0.6489  -53.4162  -19.1014 C   0  0  0  0  0  0  0  0  0  0  0  0
   -0.5284  -52.2064  -18.2658 C   0  0  0  0  0  0  0  0  0  0  0  0
   -1.0629  -52.2720  -16.8806 C   0  0  0  0  0  0  0  0  0  0  0  0
   -2.4175  -52.6786  -16.7252 N   0  0  0  0  0  0  0  0  0  0  0  0
   -2.8400  -53.3887  -17.3934 H   0  0  0  0  0  0  0  0  0  0  0  0
   -3.2946  -52.2144  -15.7222 C   0  0  0  0  0  0  0  0  0  0  0  0
   -3.3751  -50.8213  -15.4482 N   0  0  0  0  0  0  0  0  0  0  0  0
   -4.0359  -53.0301  -15.0169 N   0  0  0  0  0  0  0  0  0  0  0  0
   -3.5707  -50.5294  -14.4446 H   0  0  0  0  0  0  0  0  0  0  0  0
   -3.2509  -50.1046  -16.1878 H   0  0  0  0  0  0  0  0  0  0  0  0
   -4.6724  -52.6895  -14.2901 H   0  0  0  0  0  0  0  0  0  0  0  0
    2.5140  -50.3440  -20.5294 C   0  0  0  0  0  0  0  0  0  0  0  0
    2.1016  -49.1527  -18.3124 C   0  0  0  0  0  0  0  0  0  0  0  0
    0.8365  -49.1840  -18.4924 O   0  0  0  0  0  0  0  0  0  0  0  0
    2.9065  -49.7210  -19.2970 N   0  0  0  0  0  0  0  0  0  0  0  0
    3.9597  -49.6961  -19.1274 H   0  0  0  0  0  0  0  0  0  0  0  0
    2.5687  -48.5163  -17.0781 C   0  0  0  0  0  0  0  0  0  0  0  0
    3.7676  -44.8816  -16.6087 C   0  0  0  0  0  0  0  0  0  0  0  0
    3.6693  -46.3490  -16.4855 C   0  0  0  0  0  0  0  0  0  0  0  0
    4.5164  -46.9091  -15.7125 O   0  0  0  0  0  0  0  0  0  0  0  0
    2.6846  -47.0720  -17.1915 N   0  0  0  0  0  0  0  0  0  0  0  0
    2.0286  -46.5412  -17.8042 H   0  0  0  0  0  0  0  0  0  0  0  0
    1.5847  -48.8752  -15.9739 C   0  0  0  0  0  0  0  0  0  0  0  0
    2.0190  -50.0142  -15.1807 C   0  0  0  0  0  0  0  0  0  0  0  0
    3.3557  -50.3481  -15.1430 C   0  0  0  0  0  0  0  0  0  0  0  0
    3.7748  -51.4231  -14.3896 C   0  0  0  0  0  0  0  0  0  0  0  0
    2.8581  -52.1675  -13.6718 C   0  0  0  0  0  0  0  0  0  0  0  0
    1.5109  -51.8493  -13.6961 C   0  0  0  0  0  0  0  0  0  0  0  0
    1.1289  -50.7641  -14.4632 C   0  0  0  0  0  0  0  0  0  0  0  0
    3.3012  -50.1026  -21.7155 C   0  0  0  0  0  0  0  0  0  0  0  0
    3.1396  -50.7975  -22.9514 C   0  0  0  0  0  0  0  0  0  0  0  0
    2.2135  -50.5385  -23.9413 C   0  0  0  0  0  0  0  0  0  0  0  0
    2.1488  -51.2754  -25.0990 C   0  0  0  0  0  0  0  0  0  0  0  0
    3.0167  -52.3218  -25.3303 C   0  0  0  0  0  0  0  0  0  0  0  0
    3.9372  -52.5895  -24.3610 C   0  0  0  0  0  0  0  0  0  0  0  0
    4.0016  -51.8521  -23.2030 C   0  0  0  0  0  0  0  0  0  0  0  0
 33 34  1  0  0  0
 34 35  2  0  0  0
 34 36  1  0  0  0
 36 32  1  0  0  0
 32 38  1  0  0  0
 38 39  1  0  0  0
 39 40  2  0  0  0
 40 41  1  0  0  0
 41 42  2  0  0  0
 42 43  1  0  0  0
 43 44  2  0  0  0
 32 28  1  0  0  0
 28 29  2  0  0  0
 28 30  1  0  0  0
 30 27  1  0  0  0
 27 45  1  0  0  0
 45 46  1  0  0  0
 46 47  2  0  0  0
 47 48  1  0  0  0
 48 49  2  0  0  0
 49 50  1  0  0  0
 50 51  2  0  0  0
 27  1  1  0  0  0
  1  2  2  0  0  0
  1  3  1  0  0  0
  3  5  1  0  0  0
  5 16  1  0  0  0
 16 17  1  0  0  0
 17 18  1  0  0  0
 18 19  1  0  0  0
 19 21  1  0  0  0
 21 22  1  0  0  0
 21 23  2  0  0  0
  5  6  1  0  0  0
  6  7  2  0  0  0
  6  8  1  0  0  0
  8  9  1  0  0  0
  9 10  1  0  0  0
 10 11  2  0  0  0
 11 12  1  0  0  0
 12 13  2  0  0  0
 13 14  1  0  0  0
 14 15  2  0  0  0
 44 39  1  0  0  0
 51 46  1  0  0  0
 15 10  1  0  0  0
 36 37  1  0  0  0
 30 31  1  0  0  0
  3  4  1  0  0  0
 19 20  1  0  0  0
 22 24  1  0  0  0
 22 25  1  0  0  0
 23 26  1  0  0  0
M  END
> <minimizedAffinity>
-7.10330

> <CNNscore>
0.6025872231

> <CNNaffinity>
7.1162643433

> <CNN_VS>
4.2881698608

> <CNNaffinity_variance>
0.2016107589

$$$$
[H]N=C(N([H])[H])N([H])C([H])([H])C([H])([H])C([H])([H])[C@@]([H])(C(=O)OC([H])([H])c1c([H])c([H])c([H])c([H])c1[H])N([H])C(=O)[C@@]([H])(N([H])C(=O)[C@@]([H])(N([H])C(=O)C([H])([H])[H])C([H])([H])c1c([H])c([H])c([H])c([H])c1[H])C([H])([H])c1c([H])c([H])c([H])c([H])c1[H]


 51 53  0  0  0  0  0  0  0  0999 V2000
    0.5588  -51.3041  -21.1375 C   0  0  0  0  0  0  0  0  0  0  0  0
   -0.6633  -51.1296  -21.3667 O   0  0  0  0  0  0  0  0  0  0  0  0
    0.9692  -52.4268  -20.4305 N   0  0  0  0  0  0  0  0  0  0  0  0
    1.9748  -52.5719  -20.2123 H   0  0  0  0  0  0  0  0  0  0  0  0
    0.0366  -53.4572  -19.9527 C   0  0  0  0  0  0  0  0  0  0  0  0
   -0.6569  -54.0633  -21.1286 C   0  0  0  0  0  0  0  0  0  0  0  0
   -1.8173  -54.5190  -20.9526 O   0  0  0  0  0  0  0  0  0  0  0  0
   -0.1396  -54.1645  -22.3946 O   0  0  0  0  0  0  0  0  0  0  0  0
   -0.8370  -54.7432  -23.4800 C   0  0  0  0  0  0  0  0  0  0  0  0
   -0.5983  -53.9440  -24.7307 C   0  0  0  0  0  0  0  0  0  0  0  0
   -0.0160  -54.5176  -25.8203 C   0  0  0  0  0  0  0  0  0  0  0  0
    0.1929  -53.7667  -26.9552 C   0  0  0  0  0  0  0  0  0  0  0  0
   -0.1642  -52.4402  -27.0451 C   0  0  0  0  0  0  0  0  0  0  0  0
   -0.7539  -51.8572  -25.9430 C   0  0  0  0  0  0  0  0  0  0  0  0
   -0.9593  -52.6116  -24.8148 C   0  0  0  0  0  0  0  0  0  0  0  0
   -0.8945  -52.8309  -18.9560 C   0  0  0  0  0  0  0  0  0  0  0  0
   -0.2729  -52.1037  -17.8331 C   0  0  0  0  0  0  0  0  0  0  0  0
   -1.0783  -51.9312  -16.5961 C   0  0  0  0  0  0  0  0  0  0  0  0
   -2.3174  -52.6268  -16.5250 N   0  0  0  0  0  0  0  0  0  0  0  0
   -2.4670  -53.5077  -17.1004 H   0  0  0  0  0  0  0  0  0  0  0  0
   -3.4165  -52.2482  -15.7254 C   0  0  0  0  0  0  0  0  0  0  0  0
   -3.4759  -52.6677  -14.3678 N   0  0  0  0  0  0  0  0  0  0  0  0
   -4.4020  -51.5280  -16.1968 N   0  0  0  0  0  0  0  0  0  0  0  0
   -4.4371  -52.8593  -13.9554 H   0  0  0  0  0  0  0  0  0  0  0  0
   -2.6238  -52.7860  -13.7883 H   0  0  0  0  0  0  0  0  0  0  0  0
   -5.1981  -51.2541  -15.6130 H   0  0  0  0  0  0  0  0  0  0  0  0
    1.5061  -50.2631  -21.6558 C   0  0  0  0  0  0  0  0  0  0  0  0
    3.2309  -49.1214  -20.1637 C   0  0  0  0  0  0  0  0  0  0  0  0
    2.5430  -48.0444  -20.1352 O   0  0  0  0  0  0  0  0  0  0  0  0
    2.7212  -50.1922  -20.8944 N   0  0  0  0  0  0  0  0  0  0  0  0
    3.3020  -51.0873  -20.9000 H   0  0  0  0  0  0  0  0  0  0  0  0
    4.4914  -49.1095  -19.4168 C   0  0  0  0  0  0  0  0  0  0  0  0
    3.5207  -50.9459  -16.1682 C   0  0  0  0  0  0  0  0  0  0  0  0
    3.6882  -50.6308  -17.6001 C   0  0  0  0  0  0  0  0  0  0  0  0
    3.2292  -51.4896  -18.4251 O   0  0  0  0  0  0  0  0  0  0  0  0
    4.3227  -49.4395  -18.0114 N   0  0  0  0  0  0  0  0  0  0  0  0
    4.6716  -48.7881  -17.2757 H   0  0  0  0  0  0  0  0  0  0  0  0
    5.4283  -50.1098  -20.0784 C   0  0  0  0  0  0  0  0  0  0  0  0
    5.6707  -49.8119  -21.4812 C   0  0  0  0  0  0  0  0  0  0  0  0
    5.8521  -48.5045  -21.8785 C   0  0  0  0  0  0  0  0  0  0  0  0
    6.0870  -48.2156  -23.2052 C   0  0  0  0  0  0  0  0  0  0  0  0
    6.1411  -49.2333  -24.1385 C   0  0  0  0  0  0  0  0  0  0  0  0
    5.9615  -50.5530  -23.7606 C   0  0  0  0  0  0  0  0  0  0  0  0
    5.7281  -50.8033  -22.4209 C   0  0  0  0  0  0  0  0  0  0  0  0
    1.5646  -50.0622  -23.0844 C   0  0  0  0  0  0  0  0  0  0  0  0
    2.2150  -50.9417  -24.0009 C   0  0  0  0  0  0  0  0  0  0  0  0
    2.5746  -52.2567  -23.7857 C   0  0  0  0  0  0  0  0  0  0  0  0
    3.1991  -53.0150  -24.7461 C   0  0  0  0  0  0  0  0  0  0  0  0
    3.5001  -52.4924  -25.9863 C   0  0  0  0  0  0  0  0  0  0  0  0
    3.1508  -51.1943  -26.2133 C   0  0  0  0  0  0  0  0  0  0  0  0
    2.5261  -50.4360  -25.2523 C   0  0  0  0  0  0  0  0  0  0  0  0
 33 34  1  0  0  0
 34 35  2  0  0  0
 34 36  1  0  0  0
 36 32  1  0  0  0
 32 38  1  0  0  0
 38 39  1  0  0  0
 39 40  2  0  0  0
 40 41  1  0  0  0
 41 42  2  0  0  0
 42 43  1  0  0  0
 43 44  2  0  0  0
 32 28  1  0  0  0
 28 29  2  0  0  0
 28 30  1  0  0  0
 30 27  1  0  0  0
 27 45  1  0  0  0
 45 46  1  0  0  0
 46 47  2  0  0  0
 47 48  1  0  0  0
 48 49  2  0  0  0
 49 50  1  0  0  0
 50 51  2  0  0  0
 27  1  1  0  0  0
  1  2  2  0  0  0
  1  3  1  0  0  0
  3  5  1  0  0  0
  5 16  1  0  0  0
 16 17  1  0  0  0
 17 18  1  0  0  0
 18 19  1  0  0  0
 19 21  1  0  0  0
 21 22  1  0  0  0
 21 23  2  0  0  0
  5  6  1  0  0  0
  6  7  2  0  0  0
  6  8  1  0  0  0
  8  9  1  0  0  0
  9 10  1  0  0  0
 10 11  2  0  0  0
 11 12  1  0  0  0
 12 13  2  0  0  0
 13 14  1  0  0  0
 14 15  2  0  0  0
 44 39  1  0  0  0
 51 46  1  0  0  0
 15 10  1  0  0  0
 36 37  1  0  0  0
 30 31  1  0  0  0
  3  4  1  0  0  0
 19 20  1  0  0  0
 22 24  1  0  0  0
 22 25  1  0  0  0
 23 26  1  0  0  0
M  END
> <minimizedAffinity>
-7.50830

> <CNNscore>
0.4425241649

> <CNNaffinity>
7.0115785599

> <CNN_VS>
3.1027929783

> <CNNaffinity_variance>
0.3503068388

$$$$
[H]N=C(N([H])[H])N([H])C([H])([H])C([H])([H])C([H])([H])[C@@]([H])(C(=O)OC([H])([H])c1c([H])c([H])c([H])c([H])c1[H])N([H])C(=O)[C@@]([H])(N([H])C(=O)[C@@]([H])(N([H])C(=O)C([H])([H])[H])C([H])([H])c1c([H])c([H])c([H])c([H])c1[H])C([H])([H])c1c([H])c([H])c([H])c([H])c1[H]


 51 53  0  0  0  0  0  0  0  0999 V2000
    0.3318  -51.9115  -20.5881 C   0  0  0  0  0  0  0  0  0  0  0  0
   -0.1965  -50.8265  -20.9349 O   0  0  0  0  0  0  0  0  0  0  0  0
    0.6926  -52.8378  -21.5578 N   0  0  0  0  0  0  0  0  0  0  0  0
    1.1083  -53.7501  -21.2843 H   0  0  0  0  0  0  0  0  0  0  0  0
    0.5141  -52.6009  -22.9972 C   0  0  0  0  0  0  0  0  0  0  0  0
   -0.4343  -53.6191  -23.5401 C   0  0  0  0  0  0  0  0  0  0  0  0
   -0.7668  -54.5703  -22.7851 O   0  0  0  0  0  0  0  0  0  0  0  0
   -0.9833  -53.6077  -24.7967 O   0  0  0  0  0  0  0  0  0  0  0  0
   -1.2489  -52.4240  -25.5229 C   0  0  0  0  0  0  0  0  0  0  0  0
   -0.8866  -52.6146  -26.9694 C   0  0  0  0  0  0  0  0  0  0  0  0
   -1.8253  -52.4666  -27.9453 C   0  0  0  0  0  0  0  0  0  0  0  0
   -1.4712  -52.6460  -29.2636 C   0  0  0  0  0  0  0  0  0  0  0  0
   -0.1917  -52.9735  -29.6516 C   0  0  0  0  0  0  0  0  0  0  0  0
    0.7605  -53.1239  -28.6653 C   0  0  0  0  0  0  0  0  0  0  0  0
    0.4007  -52.9436  -27.3529 C   0  0  0  0  0  0  0  0  0  0  0  0
    1.8640  -52.6186  -23.6533 C   0  0  0  0  0  0  0  0  0  0  0  0
    2.9337  -51.8485  -22.9910 C   0  0  0  0  0  0  0  0  0  0  0  0
    3.3970  -50.6032  -23.6567 C   0  0  0  0  0  0  0  0  0  0  0  0
    4.6264  -50.6663  -24.3701 N   0  0  0  0  0  0  0  0  0  0  0  0
    4.7430  -50.1270  -25.2784 H   0  0  0  0  0  0  0  0  0  0  0  0
    5.7605  -51.4043  -23.9701 C   0  0  0  0  0  0  0  0  0  0  0  0
    6.1972  -52.5045  -24.7583 N   0  0  0  0  0  0  0  0  0  0  0  0
    6.4252  -51.1185  -22.8798 N   0  0  0  0  0  0  0  0  0  0  0  0
    6.6418  -53.3260  -24.2501 H   0  0  0  0  0  0  0  0  0  0  0  0
    6.0942  -52.5202  -25.7904 H   0  0  0  0  0  0  0  0  0  0  0  0
    7.2488  -51.6560  -22.5929 H   0  0  0  0  0  0  0  0  0  0  0  0
    0.5383  -52.1314  -19.1189 C   0  0  0  0  0  0  0  0  0  0  0  0
    2.7503  -50.9769  -18.5909 C   0  0  0  0  0  0  0  0  0  0  0  0
    3.4002  -51.8297  -19.2867 O   0  0  0  0  0  0  0  0  0  0  0  0
    1.3670  -51.1239  -18.5194 N   0  0  0  0  0  0  0  0  0  0  0  0
    0.8377  -50.3982  -17.9433 H   0  0  0  0  0  0  0  0  0  0  0  0
    3.5407  -49.9289  -17.9399 C   0  0  0  0  0  0  0  0  0  0  0  0
    3.8414  -50.3399  -14.1178 C   0  0  0  0  0  0  0  0  0  0  0  0
    3.3352  -49.9448  -15.4465 C   0  0  0  0  0  0  0  0  0  0  0  0
    2.2584  -49.2598  -15.4601 O   0  0  0  0  0  0  0  0  0  0  0  0
    4.0207  -50.3139  -16.6232 N   0  0  0  0  0  0  0  0  0  0  0  0
    4.8946  -50.8750  -16.5285 H   0  0  0  0  0  0  0  0  0  0  0  0
    4.7172  -49.6069  -18.8501 C   0  0  0  0  0  0  0  0  0  0  0  0
    4.5030  -48.4075  -19.6444 C   0  0  0  0  0  0  0  0  0  0  0  0
    4.0100  -47.2702  -19.0416 C   0  0  0  0  0  0  0  0  0  0  0  0
    3.8093  -46.1289  -19.7872 C   0  0  0  0  0  0  0  0  0  0  0  0
    4.1009  -46.1217  -21.1380 C   0  0  0  0  0  0  0  0  0  0  0  0
    4.5968  -47.2531  -21.7629 C   0  0  0  0  0  0  0  0  0  0  0  0
    4.7848  -48.3786  -20.9820 C   0  0  0  0  0  0  0  0  0  0  0  0
   -0.5661  -52.6693  -18.3602 C   0  0  0  0  0  0  0  0  0  0  0  0
   -1.1945  -52.0080  -17.2628 C   0  0  0  0  0  0  0  0  0  0  0  0
   -0.7356  -50.8991  -16.5811 C   0  0  0  0  0  0  0  0  0  0  0  0
   -1.4279  -50.3411  -15.5338 C   0  0  0  0  0  0  0  0  0  0  0  0
   -2.6291  -50.8684  -15.1084 C   0  0  0  0  0  0  0  0  0  0  0  0
   -3.0948  -51.9641  -15.7725 C   0  0  0  0  0  0  0  0  0  0  0  0
   -2.4021  -52.5221  -16.8201 C   0  0  0  0  0  0  0  0  0  0  0  0
 33 34  1  0  0  0
 34 35  2  0  0  0
 34 36  1  0  0  0
 36 32  1  0  0  0
 32 38  1  0  0  0
 38 39  1  0  0  0
 39 40  2  0  0  0
 40 41  1  0  0  0
 41 42  2  0  0  0
 42 43  1  0  0  0
 43 44  2  0  0  0
 32 28  1  0  0  0
 28 29  2  0  0  0
 28 30  1  0  0  0
 30 27  1  0  0  0
 27 45  1  0  0  0
 45 46  1  0  0  0
 46 47  2  0  0  0
 47 48  1  0  0  0
 48 49  2  0  0  0
 49 50  1  0  0  0
 50 51  2  0  0  0
 27  1  1  0  0  0
  1  2  2  0  0  0
  1  3  1  0  0  0
  3  5  1  0  0  0
  5 16  1  0  0  0
 16 17  1  0  0  0
 17 18  1  0  0  0
 18 19  1  0  0  0
 19 21  1  0  0  0
 21 22  1  0  0  0
 21 23  2  0  0  0
  5  6  1  0  0  0
  6  7  2  0  0  0
  6  8  1  0  0  0
  8  9  1  0  0  0
  9 10  1  0  0  0
 10 11  2  0  0  0
 11 12  1  0  0  0
 12 13  2  0  0  0
 13 14  1  0  0  0
 14 15  2  0  0  0
 44 39  1  0  0  0
 51 46  1  0  0  0
 15 10  1  0  0  0
 36 37  1  0  0  0
 30 31  1  0  0  0
  3  4  1  0  0  0
 19 20  1  0  0  0
 22 24  1  0  0  0
 22 25  1  0  0  0
 23 26  1  0  0  0
M  END
> <minimizedAffinity>
-7.74525

> <CNNscore>
0.3562275767

> <CNNaffinity>
6.9955391884

> <CNN_VS>
2.4920039177

> <CNNaffinity_variance>
0.2148526460

$$$$
[H]N=C(N([H])[H])N([H])C([H])([H])C([H])([H])C([H])([H])[C@@]([H])(C(=O)OC([H])([H])c1c([H])c([H])c([H])c([H])c1[H])N([H])C(=O)[C@@]([H])(N([H])C(=O)[C@@]([H])(N([H])C(=O)C([H])([H])[H])C([H])([H])c1c([H])c([H])c([H])c([H])c1[H])C([H])([H])c1c([H])c([H])c([H])c([H])c1[H]


 51 53  0  0  0  0  0  0  0  0999 V2000
    2.2656  -48.4353  -21.7509 C   0  0  0  0  0  0  0  0  0  0  0  0
    1.7081  -47.3829  -22.1488 O   0  0  0  0  0  0  0  0  0  0  0  0
    3.0847  -49.1461  -22.6184 N   0  0  0  0  0  0  0  0  0  0  0  0
    3.5332  -50.0316  -22.3108 H   0  0  0  0  0  0  0  0  0  0  0  0
    3.3642  -48.7098  -23.9936 C   0  0  0  0  0  0  0  0  0  0  0  0
    3.1333  -49.8579  -24.9207 C   0  0  0  0  0  0  0  0  0  0  0  0
    3.8723  -49.9479  -25.9361 O   0  0  0  0  0  0  0  0  0  0  0  0
    2.1829  -50.8335  -24.7607 O   0  0  0  0  0  0  0  0  0  0  0  0
    2.1733  -52.0430  -25.4929 C   0  0  0  0  0  0  0  0  0  0  0  0
    0.8631  -52.1989  -26.2134 C   0  0  0  0  0  0  0  0  0  0  0  0
    0.8313  -52.5761  -27.5219 C   0  0  0  0  0  0  0  0  0  0  0  0
   -0.3800  -52.7126  -28.1619 C   0  0  0  0  0  0  0  0  0  0  0  0
   -1.5830  -52.4828  -27.5332 C   0  0  0  0  0  0  0  0  0  0  0  0
   -1.5532  -52.1007  -26.2084 C   0  0  0  0  0  0  0  0  0  0  0  0
   -0.3421  -51.9664  -25.5763 C   0  0  0  0  0  0  0  0  0  0  0  0
    4.7602  -48.1607  -24.0442 C   0  0  0  0  0  0  0  0  0  0  0  0
    5.6767  -48.5780  -22.9662 C   0  0  0  0  0  0  0  0  0  0  0  0
    6.8014  -49.4785  -23.3306 C   0  0  0  0  0  0  0  0  0  0  0  0
    6.6695  -50.8537  -22.9903 N   0  0  0  0  0  0  0  0  0  0  0  0
    7.3348  -51.2945  -22.2885 H   0  0  0  0  0  0  0  0  0  0  0  0
    5.6947  -51.7297  -23.5129 C   0  0  0  0  0  0  0  0  0  0  0  0
    5.8634  -52.2721  -24.8166 N   0  0  0  0  0  0  0  0  0  0  0  0
    4.6211  -52.0545  -22.8390 N   0  0  0  0  0  0  0  0  0  0  0  0
    4.9862  -52.4538  -25.3894 H   0  0  0  0  0  0  0  0  0  0  0  0
    6.7993  -52.4887  -25.2081 H   0  0  0  0  0  0  0  0  0  0  0  0
    3.9158  -52.6916  -23.2212 H   0  0  0  0  0  0  0  0  0  0  0  0
    1.9991  -48.8562  -20.3362 C   0  0  0  0  0  0  0  0  0  0  0  0
    1.0933  -51.2227  -20.6254 C   0  0  0  0  0  0  0  0  0  0  0  0
    2.2029  -51.6235  -21.1174 O   0  0  0  0  0  0  0  0  0  0  0  0
    1.0033  -49.8862  -20.2434 N   0  0  0  0  0  0  0  0  0  0  0  0
    0.0741  -49.5696  -19.8250 H   0  0  0  0  0  0  0  0  0  0  0  0
    0.0291  -52.2240  -20.5167 C   0  0  0  0  0  0  0  0  0  0  0  0
   -1.0846  -54.9741  -22.9794 C   0  0  0  0  0  0  0  0  0  0  0  0
   -1.0737  -54.0418  -21.8356 C   0  0  0  0  0  0  0  0  0  0  0  0
   -2.0776  -54.1001  -21.0495 O   0  0  0  0  0  0  0  0  0  0  0  0
   -0.0019  -53.1452  -21.6405 N   0  0  0  0  0  0  0  0  0  0  0  0
    0.7822  -53.1582  -22.3279 H   0  0  0  0  0  0  0  0  0  0  0  0
    0.2485  -52.9905  -19.2203 C   0  0  0  0  0  0  0  0  0  0  0  0
   -0.5410  -52.4677  -18.1164 C   0  0  0  0  0  0  0  0  0  0  0  0
   -1.7527  -53.0489  -17.8102 C   0  0  0  0  0  0  0  0  0  0  0  0
   -2.5035  -52.5616  -16.7625 C   0  0  0  0  0  0  0  0  0  0  0  0
   -2.0448  -51.4916  -16.0180 C   0  0  0  0  0  0  0  0  0  0  0  0
   -0.8307  -50.8933  -16.3089 C   0  0  0  0  0  0  0  0  0  0  0  0
   -0.1060  -51.4100  -17.3671 C   0  0  0  0  0  0  0  0  0  0  0  0
    3.1170  -48.8815  -19.4227 C   0  0  0  0  0  0  0  0  0  0  0  0
    3.0675  -49.4020  -18.0949 C   0  0  0  0  0  0  0  0  0  0  0  0
    3.5535  -50.6162  -17.6541 C   0  0  0  0  0  0  0  0  0  0  0  0
    3.4523  -51.0171  -16.3440 C   0  0  0  0  0  0  0  0  0  0  0  0
    2.8533  -50.2158  -15.3949 C   0  0  0  0  0  0  0  0  0  0  0  0
    2.3683  -49.0132  -15.8158 C   0  0  0  0  0  0  0  0  0  0  0  0
    2.4696  -48.6124  -17.1265 C   0  0  0  0  0  0  0  0  0  0  0  0
 33 34  1  0  0  0
 34 35  2  0  0  0
 34 36  1  0  0  0
 36 32  1  0  0  0
 32 38  1  0  0  0
 38 39  1  0  0  0
 39 40  2  0  0  0
 40 41  1  0  0  0
 41 42  2  0  0  0
 42 43  1  0  0  0
 43 44  2  0  0  0
 32 28  1  0  0  0
 28 29  2  0  0  0
 28 30  1  0  0  0
 30 27  1  0  0  0
 27 45  1  0  0  0
 45 46  1  0  0  0
 46 47  2  0  0  0
 47 48  1  0  0  0
 48 49  2  0  0  0
 49 50  1  0  0  0
 50 51  2  0  0  0
 27  1  1  0  0  0
  1  2  2  0  0  0
  1  3  1  0  0  0
  3  5  1  0  0  0
  5 16  1  0  0  0
 16 17  1  0  0  0
 17 18  1  0  0  0
 18 19  1  0  0  0
 19 21  1  0  0  0
 21 22  1  0  0  0
 21 23  2  0  0  0
  5  6  1  0  0  0
  6  7  2  0  0  0
  6  8  1  0  0  0
  8  9  1  0  0  0
  9 10  1  0  0  0
 10 11  2  0  0  0
 11 12  1  0  0  0
 12 13  2  0  0  0
 13 14  1  0  0  0
 14 15  2  0  0  0
 44 39  1  0  0  0
 51 46  1  0  0  0
 15 10  1  0  0  0
 36 37  1  0  0  0
 30 31  1  0  0  0
  3  4  1  0  0  0
 19 20  1  0  0  0
 22 24  1  0  0  0
 22 25  1  0  0  0
 23 26  1  0  0  0
M  END
> <minimizedAffinity>
-7.22169

> <CNNscore>
0.3435515165

> <CNNaffinity>
6.8577485085

> <CNN_VS>
2.3559899330

> <CNNaffinity_variance>
0.5163795352

$$$$
[H]N=C(N([H])[H])N([H])C([H])([H])C([H])([H])C([H])([H])[C@@]([H])(C(=O)OC([H])([H])c1c([H])c([H])c([H])c([H])c1[H])N([H])C(=O)[C@@]([H])(N([H])C(=O)[C@@]([H])(N([H])C(=O)C([H])([H])[H])C([H])([H])c1c([H])c([H])c([H])c([H])c1[H])C([H])([H])c1c([H])c([H])c([H])c([H])c1[H]


 51 53  0  0  0  0  0  0  0  0999 V2000
    2.4645  -51.2048  -19.5036 C   0  0  0  0  0  0  0  0  0  0  0  0
    3.1812  -52.2357  -19.5092 O   0  0  0  0  0  0  0  0  0  0  0  0
    1.0823  -51.3318  -19.5506 N   0  0  0  0  0  0  0  0  0  0  0  0
    0.4774  -50.4871  -19.5712 H   0  0  0  0  0  0  0  0  0  0  0  0
    0.3983  -52.6322  -19.5766 C   0  0  0  0  0  0  0  0  0  0  0  0
   -0.2089  -52.8313  -20.9267 C   0  0  0  0  0  0  0  0  0  0  0  0
   -1.4578  -52.9776  -20.9908 O   0  0  0  0  0  0  0  0  0  0  0  0
    0.4781  -52.8649  -22.1130 O   0  0  0  0  0  0  0  0  0  0  0  0
    0.4264  -51.8308  -23.0758 C   0  0  0  0  0  0  0  0  0  0  0  0
    0.1240  -52.4042  -24.4322 C   0  0  0  0  0  0  0  0  0  0  0  0
    0.3081  -53.7305  -24.6817 C   0  0  0  0  0  0  0  0  0  0  0  0
    0.0247  -54.2341  -25.9314 C   0  0  0  0  0  0  0  0  0  0  0  0
   -0.4444  -53.4490  -26.9603 C   0  0  0  0  0  0  0  0  0  0  0  0
   -0.6316  -52.1057  -26.7100 C   0  0  0  0  0  0  0  0  0  0  0  0
   -0.3470  -51.6102  -25.4619 C   0  0  0  0  0  0  0  0  0  0  0  0
   -0.5961  -52.6693  -18.4529 C   0  0  0  0  0  0  0  0  0  0  0  0
   -0.4450  -51.6480  -17.3992 C   0  0  0  0  0  0  0  0  0  0  0  0
   -0.7285  -52.0581  -15.9991 C   0  0  0  0  0  0  0  0  0  0  0  0
    0.1666  -51.5981  -14.9933 N   0  0  0  0  0  0  0  0  0  0  0  0
    0.4786  -50.5823  -14.9825 H   0  0  0  0  0  0  0  0  0  0  0  0
    0.7021  -52.3929  -13.9577 C   0  0  0  0  0  0  0  0  0  0  0  0
   -0.1746  -53.0873  -13.0793 N   0  0  0  0  0  0  0  0  0  0  0  0
    1.9915  -52.5048  -13.7650 N   0  0  0  0  0  0  0  0  0  0  0  0
    0.1405  -53.2151  -12.0719 H   0  0  0  0  0  0  0  0  0  0  0  0
   -1.0894  -53.4617  -13.3939 H   0  0  0  0  0  0  0  0  0  0  0  0
    2.3768  -53.0835  -13.0127 H   0  0  0  0  0  0  0  0  0  0  0  0
    3.1705  -49.8827  -19.4457 C   0  0  0  0  0  0  0  0  0  0  0  0
    2.9232  -48.9816  -21.8187 C   0  0  0  0  0  0  0  0  0  0  0  0
    1.6549  -48.8908  -21.6882 O   0  0  0  0  0  0  0  0  0  0  0  0
    3.6507  -49.4549  -20.7293 N   0  0  0  0  0  0  0  0  0  0  0  0
    4.7091  -49.5152  -20.8504 H   0  0  0  0  0  0  0  0  0  0  0  0
    3.4760  -48.5731  -23.1128 C   0  0  0  0  0  0  0  0  0  0  0  0
    4.0345  -44.7588  -23.1984 C   0  0  0  0  0  0  0  0  0  0  0  0
    3.3709  -46.0764  -23.2358 C   0  0  0  0  0  0  0  0  0  0  0  0
    2.1084  -46.0681  -23.4230 O   0  0  0  0  0  0  0  0  0  0  0  0
    4.1112  -47.2665  -23.0728 N   0  0  0  0  0  0  0  0  0  0  0  0
    5.1403  -47.1896  -22.9236 H   0  0  0  0  0  0  0  0  0  0  0  0
    4.4850  -49.6305  -23.5370 C   0  0  0  0  0  0  0  0  0  0  0  0
    3.9926  -50.4807  -24.6095 C   0  0  0  0  0  0  0  0  0  0  0  0
    3.3562  -49.9122  -25.6918 C   0  0  0  0  0  0  0  0  0  0  0  0
    2.8915  -50.7114  -26.7137 C   0  0  0  0  0  0  0  0  0  0  0  0
    3.0620  -52.0815  -26.6561 C   0  0  0  0  0  0  0  0  0  0  0  0
    3.6983  -52.6727  -25.5780 C   0  0  0  0  0  0  0  0  0  0  0  0
    4.1507  -51.8383  -24.5725 C   0  0  0  0  0  0  0  0  0  0  0  0
    2.6649  -48.8929  -18.5241 C   0  0  0  0  0  0  0  0  0  0  0  0
    3.0611  -48.7798  -17.1578 C   0  0  0  0  0  0  0  0  0  0  0  0
    3.1050  -49.7859  -16.2140 C   0  0  0  0  0  0  0  0  0  0  0  0
    3.5068  -49.5627  -14.9194 C   0  0  0  0  0  0  0  0  0  0  0  0
    3.8904  -48.3077  -14.4956 C   0  0  0  0  0  0  0  0  0  0  0  0
    3.8521  -47.3038  -15.4172 C   0  0  0  0  0  0  0  0  0  0  0  0
    3.4499  -47.5273  -16.7122 C   0  0  0  0  0  0  0  0  0  0  0  0
 33 34  1  0  0  0
 34 35  2  0  0  0
 34 36  1  0  0  0
 36 32  1  0  0  0
 32 38  1  0  0  0
 38 39  1  0  0  0
 39 40  2  0  0  0
 40 41  1  0  0  0
 41 42  2  0  0  0
 42 43  1  0  0  0
 43 44  2  0  0  0
 32 28  1  0  0  0
 28 29  2  0  0  0
 28 30  1  0  0  0
 30 27  1  0  0  0
 27 45  1  0  0  0
 45 46  1  0  0  0
 46 47  2  0  0  0
 47 48  1  0  0  0
 48 49  2  0  0  0
 49 50  1  0  0  0
 50 51  2  0  0  0
 27  1  1  0  0  0
  1  2  2  0  0  0
  1  3  1  0  0  0
  3  5  1  0  0  0
  5 16  1  0  0  0
 16 17  1  0  0  0
 17 18  1  0  0  0
 18 19  1  0  0  0
 19 21  1  0  0  0
 21 22  1  0  0  0
 21 23  2  0  0  0
  5  6  1  0  0  0
  6  7  2  0  0  0
  6  8  1  0  0  0
  8  9  1  0  0  0
  9 10  1  0  0  0
 10 11  2  0  0  0
 11 12  1  0  0  0
 12 13  2  0  0  0
 13 14  1  0  0  0
 14 15  2  0  0  0
 44 39  1  0  0  0
 51 46  1  0  0  0
 15 10  1  0  0  0
 36 37  1  0  0  0
 30 31  1  0  0  0
  3  4  1  0  0  0
 19 20  1  0  0  0
 22 24  1  0  0  0
 22 25  1  0  0  0
 23 26  1  0  0  0
M  END
> <minimizedAffinity>
-6.74233

> <CNNscore>
0.3226352036

> <CNNaffinity>
6.5921797752

> <CNN_VS>
2.1268692017

> <CNNaffinity_variance>
0.3033289313

$$$$
[H]N=C(N([H])[H])N([H])C([H])([H])C([H])([H])C([H])([H])[C@@]([H])(C(=O)OC([H])([H])c1c([H])c([H])c([H])c([H])c1[H])N([H])C(=O)[C@@]([H])(N([H])C(=O)[C@@]([H])(N([H])C(=O)C([H])([H])[H])C([H])([H])c1c([H])c([H])c([H])c([H])c1[H])C([H])([H])c1c([H])c([H])c([H])c([H])c1[H]


 51 53  0  0  0  0  0  0  0  0999 V2000
    0.2495  -51.9793  -20.5381 C   0  0  0  0  0  0  0  0  0  0  0  0
   -0.2713  -50.8815  -20.8548 O   0  0  0  0  0  0  0  0  0  0  0  0
    0.5765  -52.8935  -21.5312 N   0  0  0  0  0  0  0  0  0  0  0  0
    0.9855  -53.8158  -21.2824 H   0  0  0  0  0  0  0  0  0  0  0  0
    0.3702  -52.6293  -22.9620 C   0  0  0  0  0  0  0  0  0  0  0  0
   -0.5288  -53.6822  -23.5226 C   0  0  0  0  0  0  0  0  0  0  0  0
   -0.8675  -54.6275  -22.7630 O   0  0  0  0  0  0  0  0  0  0  0  0
   -1.0258  -53.7090  -24.8004 O   0  0  0  0  0  0  0  0  0  0  0  0
   -1.3477  -52.5466  -25.5383 C   0  0  0  0  0  0  0  0  0  0  0  0
   -0.8963  -52.6999  -26.9641 C   0  0  0  0  0  0  0  0  0  0  0  0
   -1.7616  -52.4821  -27.9932 C   0  0  0  0  0  0  0  0  0  0  0  0
   -1.3264  -52.6283  -29.2912 C   0  0  0  0  0  0  0  0  0  0  0  0
   -0.0362  -52.9903  -29.6064 C   0  0  0  0  0  0  0  0  0  0  0  0
    0.8417  -53.2114  -28.5660 C   0  0  0  0  0  0  0  0  0  0  0  0
    0.4013  -53.0639  -27.2742 C   0  0  0  0  0  0  0  0  0  0  0  0
    1.7119  -52.5581  -23.6310 C   0  0  0  0  0  0  0  0  0  0  0  0
    2.8246  -52.0139  -22.8301 C   0  0  0  0  0  0  0  0  0  0  0  0
    3.3065  -50.6477  -23.1621 C   0  0  0  0  0  0  0  0  0  0  0  0
    4.5238  -50.5473  -23.8917 N   0  0  0  0  0  0  0  0  0  0  0  0
    4.6222  -49.8265  -24.6664 H   0  0  0  0  0  0  0  0  0  0  0  0
    5.6683  -51.3437  -23.6753 C   0  0  0  0  0  0  0  0  0  0  0  0
    6.0236  -52.3378  -24.6282 N   0  0  0  0  0  0  0  0  0  0  0  0
    6.4162  -51.2087  -22.6101 N   0  0  0  0  0  0  0  0  0  0  0  0
    6.4866  -53.2230  -24.2639 H   0  0  0  0  0  0  0  0  0  0  0  0
    5.8455  -52.2188  -25.6431 H   0  0  0  0  0  0  0  0  0  0  0  0
    7.2471  -51.7880  -22.4567 H   0  0  0  0  0  0  0  0  0  0  0  0
    0.4847  -52.2274  -19.0778 C   0  0  0  0  0  0  0  0  0  0  0  0
    2.3996  -50.6961  -18.3758 C   0  0  0  0  0  0  0  0  0  0  0  0
    3.2457  -51.4005  -19.0251 O   0  0  0  0  0  0  0  0  0  0  0  0
    1.0660  -51.0967  -18.4108 N   0  0  0  0  0  0  0  0  0  0  0  0
    0.3705  -50.4926  -17.8723 H   0  0  0  0  0  0  0  0  0  0  0  0
    2.9321  -49.5337  -17.6601 C   0  0  0  0  0  0  0  0  0  0  0  0
    4.5552  -46.8483  -19.9012 C   0  0  0  0  0  0  0  0  0  0  0  0
    4.3845  -48.0327  -19.0376 C   0  0  0  0  0  0  0  0  0  0  0  0
    5.4373  -48.7128  -18.7967 O   0  0  0  0  0  0  0  0  0  0  0  0
    3.1184  -48.3746  -18.5170 N   0  0  0  0  0  0  0  0  0  0  0  0
    2.3058  -47.7681  -18.7604 H   0  0  0  0  0  0  0  0  0  0  0  0
    1.9616  -49.2005  -16.5361 C   0  0  0  0  0  0  0  0  0  0  0  0
    2.4331  -49.6456  -15.2343 C   0  0  0  0  0  0  0  0  0  0  0  0
    3.7199  -49.3502  -14.8383 C   0  0  0  0  0  0  0  0  0  0  0  0
    4.1716  -49.7647  -13.6043 C   0  0  0  0  0  0  0  0  0  0  0  0
    3.3377  -50.4759  -12.7625 C   0  0  0  0  0  0  0  0  0  0  0  0
    2.0419  -50.7831  -13.1409 C   0  0  0  0  0  0  0  0  0  0  0  0
    1.6248  -50.3503  -14.3862 C   0  0  0  0  0  0  0  0  0  0  0  0
   -0.4821  -53.0338  -18.3709 C   0  0  0  0  0  0  0  0  0  0  0  0
   -1.4308  -52.5264  -17.4333 C   0  0  0  0  0  0  0  0  0  0  0  0
   -2.7257  -52.9612  -17.2357 C   0  0  0  0  0  0  0  0  0  0  0  0
   -3.5557  -52.3971  -16.2975 C   0  0  0  0  0  0  0  0  0  0  0  0
   -3.1298  -51.3570  -15.4984 C   0  0  0  0  0  0  0  0  0  0  0  0
   -1.8526  -50.9169  -15.6824 C   0  0  0  0  0  0  0  0  0  0  0  0
   -1.0225  -51.4814  -16.6211 C   0  0  0  0  0  0  0  0  0  0  0  0
 33 34  1  0  0  0
 34 35  2  0  0  0
 34 36  1  0  0  0
 36 32  1  0  0  0
 32 38  1  0  0  0
 38 39  1  0  0  0
 39 40  2  0  0  0
 40 41  1  0  0  0
 41 42  2  0  0  0
 42 43  1  0  0  0
 43 44  2  0  0  0
 32 28  1  0  0  0
 28 29  2  0  0  0
 28 30  1  0  0  0
 30 27  1  0  0  0
 27 45  1  0  0  0
 45 46  1  0  0  0
 46 47  2  0  0  0
 47 48  1  0  0  0
 48 49  2  0  0  0
 49 50  1  0  0  0
 50 51  2  0  0  0
 27  1  1  0  0  0
  1  2  2  0  0  0
  1  3  1  0  0  0
  3  5  1  0  0  0
  5 16  1  0  0  0
 16 17  1  0  0  0
 17 18  1  0  0  0
 18 19  1  0  0  0
 19 21  1  0  0  0
 21 22  1  0  0  0
 21 23  2  0  0  0
  5  6  1  0  0  0
  6  7  2  0  0  0
  6  8  1  0  0  0
  8  9  1  0  0  0
  9 10  1  0  0  0
 10 11  2  0  0  0
 11 12  1  0  0  0
 12 13  2  0  0  0
 13 14  1  0  0  0
 14 15  2  0  0  0
 44 39  1  0  0  0
 51 46  1  0  0  0
 15 10  1  0  0  0
 36 37  1  0  0  0
 30 31  1  0  0  0
  3  4  1  0  0  0
 19 20  1  0  0  0
 22 24  1  0  0  0
 22 25  1  0  0  0
 23 26  1  0  0  0
M  END
> <minimizedAffinity>
-7.51123

> <CNNscore>
0.2687108815

> <CNNaffinity>
6.7755174637

> <CNN_VS>
1.8206552267

> <CNNaffinity_variance>
0.4023527503

$$$$
[H]N=C(N([H])[H])N([H])C([H])([H])C([H])([H])C([H])([H])[C@@]([H])(C(=O)OC([H])([H])c1c([H])c([H])c([H])c([H])c1[H])N([H])C(=O)[C@@]([H])(N([H])C(=O)[C@@]([H])(N([H])C(=O)C([H])([H])[H])C([H])([H])c1c([H])c([H])c([H])c([H])c1[H])C([H])([H])c1c([H])c([H])c([H])c([H])c1[H]


 51 53  0  0  0  0  0  0  0  0999 V2000
    2.2359  -51.3521  -19.6122 C   0  0  0  0  0  0  0  0  0  0  0  0
    3.0036  -52.3449  -19.6524 O   0  0  0  0  0  0  0  0  0  0  0  0
    0.8620  -51.5505  -19.5702 N   0  0  0  0  0  0  0  0  0  0  0  0
    0.2138  -50.7383  -19.5613 H   0  0  0  0  0  0  0  0  0  0  0  0
    0.2463  -52.8845  -19.5392 C   0  0  0  0  0  0  0  0  0  0  0  0
   -0.3042  -53.1936  -20.8929 C   0  0  0  0  0  0  0  0  0  0  0  0
   -1.4946  -53.5980  -20.9620 O   0  0  0  0  0  0  0  0  0  0  0  0
    0.3757  -53.0710  -22.0774 O   0  0  0  0  0  0  0  0  0  0  0  0
    0.2177  -51.9775  -22.9598 C   0  0  0  0  0  0  0  0  0  0  0  0
    0.0062  -52.4739  -24.3629 C   0  0  0  0  0  0  0  0  0  0  0  0
   -0.3508  -51.6138  -25.3570 C   0  0  0  0  0  0  0  0  0  0  0  0
   -0.5392  -52.0905  -26.6348 C   0  0  0  0  0  0  0  0  0  0  0  0
   -0.3818  -53.4179  -26.9638 C   0  0  0  0  0  0  0  0  0  0  0  0
   -0.0204  -54.2907  -25.9589 C   0  0  0  0  0  0  0  0  0  0  0  0
    0.1659  -53.8088  -24.6871 C   0  0  0  0  0  0  0  0  0  0  0  0
   -0.7820  -52.9087  -18.4462 C   0  0  0  0  0  0  0  0  0  0  0  0
   -0.5711  -51.9842  -17.3162 C   0  0  0  0  0  0  0  0  0  0  0  0
   -1.6812  -51.8268  -16.3407 C   0  0  0  0  0  0  0  0  0  0  0  0
   -2.7346  -52.7816  -16.3951 N   0  0  0  0  0  0  0  0  0  0  0  0
   -2.5346  -53.7775  -16.7076 H   0  0  0  0  0  0  0  0  0  0  0  0
   -4.0800  -52.5267  -16.0549 C   0  0  0  0  0  0  0  0  0  0  0  0
   -4.5249  -51.1844  -15.9039 N   0  0  0  0  0  0  0  0  0  0  0  0
   -4.9406  -53.4924  -15.8573 N   0  0  0  0  0  0  0  0  0  0  0  0
   -5.2835  -50.9975  -15.1827 H   0  0  0  0  0  0  0  0  0  0  0  0
   -4.1352  -50.4064  -16.4686 H   0  0  0  0  0  0  0  0  0  0  0  0
   -5.9170  -53.3036  -15.6113 H   0  0  0  0  0  0  0  0  0  0  0  0
    2.8744  -49.9949  -19.6130 C   0  0  0  0  0  0  0  0  0  0  0  0
    2.3259  -48.9135  -21.8567 C   0  0  0  0  0  0  0  0  0  0  0  0
    1.1131  -48.7175  -21.5040 O   0  0  0  0  0  0  0  0  0  0  0  0
    3.1738  -49.5248  -20.9361 N   0  0  0  0  0  0  0  0  0  0  0  0
    4.1856  -49.6721  -21.2416 H   0  0  0  0  0  0  0  0  0  0  0  0
    2.6929  -48.4684  -23.2036 C   0  0  0  0  0  0  0  0  0  0  0  0
    4.1732  -44.9497  -22.6601 C   0  0  0  0  0  0  0  0  0  0  0  0
    3.9605  -46.4071  -22.5681 C   0  0  0  0  0  0  0  0  0  0  0  0
    4.7622  -47.0484  -21.8097 O   0  0  0  0  0  0  0  0  0  0  0  0
    2.9213  -47.0354  -23.2865 N   0  0  0  0  0  0  0  0  0  0  0  0
    2.3082  -46.4419  -23.8857 H   0  0  0  0  0  0  0  0  0  0  0  0
    3.9514  -49.2213  -23.6106 C   0  0  0  0  0  0  0  0  0  0  0  0
    3.6845  -50.2966  -24.5528 C   0  0  0  0  0  0  0  0  0  0  0  0
    3.8760  -51.6053  -24.1649 C   0  0  0  0  0  0  0  0  0  0  0  0
    3.6206  -52.6293  -25.0509 C   0  0  0  0  0  0  0  0  0  0  0  0
    3.1729  -52.3474  -26.3276 C   0  0  0  0  0  0  0  0  0  0  0  0
    2.9741  -51.0400  -26.7373 C   0  0  0  0  0  0  0  0  0  0  0  0
    3.2412  -50.0400  -25.8204 C   0  0  0  0  0  0  0  0  0  0  0  0
    2.4327  -49.0461  -18.6183 C   0  0  0  0  0  0  0  0  0  0  0  0
    3.1723  -47.8960  -18.2099 C   0  0  0  0  0  0  0  0  0  0  0  0
    3.2287  -46.6704  -18.8418 C   0  0  0  0  0  0  0  0  0  0  0  0
    3.9772  -45.6260  -18.3557 C   0  0  0  0  0  0  0  0  0  0  0  0
    4.7169  -45.7535  -17.1988 C   0  0  0  0  0  0  0  0  0  0  0  0
    4.6708  -46.9589  -16.5635 C   0  0  0  0  0  0  0  0  0  0  0  0
    3.9220  -48.0036  -17.0501 C   0  0  0  0  0  0  0  0  0  0  0  0
 33 34  1  0  0  0
 34 35  2  0  0  0
 34 36  1  0  0  0
 36 32  1  0  0  0
 32 38  1  0  0  0
 38 39  1  0  0  0
 39 40  2  0  0  0
 40 41  1  0  0  0
 41 42  2  0  0  0
 42 43  1  0  0  0
 43 44  2  0  0  0
 32 28  1  0  0  0
 28 29  2  0  0  0
 28 30  1  0  0  0
 30 27  1  0  0  0
 27 45  1  0  0  0
 45 46  1  0  0  0
 46 47  2  0  0  0
 47 48  1  0  0  0
 48 49  2  0  0  0
 49 50  1  0  0  0
 50 51  2  0  0  0
 27  1  1  0  0  0
  1  2  2  0  0  0
  1  3  1  0  0  0
  3  5  1  0  0  0
  5 16  1  0  0  0
 16 17  1  0  0  0
 17 18  1  0  0  0
 18 19  1  0  0  0
 19 21  1  0  0  0
 21 22  1  0  0  0
 21 23  2  0  0  0
  5  6  1  0  0  0
  6  7  2  0  0  0
  6  8  1  0  0  0
  8  9  1  0  0  0
  9 10  1  0  0  0
 10 11  2  0  0  0
 11 12  1  0  0  0
 12 13  2  0  0  0
 13 14  1  0  0  0
 14 15  2  0  0  0
 44 39  1  0  0  0
 51 46  1  0  0  0
 15 10  1  0  0  0
 36 37  1  0  0  0
 30 31  1  0  0  0
  3  4  1  0  0  0
 19 20  1  0  0  0
 22 24  1  0  0  0
 22 25  1  0  0  0
 23 26  1  0  0  0
M  END
> <minimizedAffinity>
-6.77484

> <CNNscore>
0.2668318748

> <CNNaffinity>
6.8907194138

> <CNN_VS>
1.8386635780

> <CNNaffinity_variance>
0.1987642497

$$$$
[H]N=C(N([H])[H])N([H])C([H])([H])C([H])([H])C([H])([H])[C@@]([H])(C(=O)OC([H])([H])c1c([H])c([H])c([H])c([H])c1[H])N([H])C(=O)[C@@]([H])(N([H])C(=O)[C@@]([H])(N([H])C(=O)C([H])([H])[H])C([H])([H])c1c([H])c([H])c([H])c([H])c1[H])C([H])([H])c1c([H])c([H])c([H])c([H])c1[H]


 51 53  0  0  0  0  0  0  0  0999 V2000
    2.3554  -50.7643  -19.4746 C   0  0  0  0  0  0  0  0  0  0  0  0
    3.2536  -51.5944  -19.1903 O   0  0  0  0  0  0  0  0  0  0  0  0
    2.6895  -49.4278  -19.6505 N   0  0  0  0  0  0  0  0  0  0  0  0
    1.9532  -48.7255  -19.8620 H   0  0  0  0  0  0  0  0  0  0  0  0
    4.0674  -48.9270  -19.5498 C   0  0  0  0  0  0  0  0  0  0  0  0
    4.0957  -47.7808  -18.5924 C   0  0  0  0  0  0  0  0  0  0  0  0
    3.9961  -46.6190  -19.0675 O   0  0  0  0  0  0  0  0  0  0  0  0
    4.2171  -47.8823  -17.2303 O   0  0  0  0  0  0  0  0  0  0  0  0
    3.1138  -48.0002  -16.3538 C   0  0  0  0  0  0  0  0  0  0  0  0
    3.3302  -49.1454  -15.4042 C   0  0  0  0  0  0  0  0  0  0  0  0
    3.6774  -48.9154  -14.1073 C   0  0  0  0  0  0  0  0  0  0  0  0
    3.8705  -49.9794  -13.2552 C   0  0  0  0  0  0  0  0  0  0  0  0
    3.7274  -51.2885  -13.6563 C   0  0  0  0  0  0  0  0  0  0  0  0
    3.3759  -51.5238  -14.9690 C   0  0  0  0  0  0  0  0  0  0  0  0
    3.1849  -50.4584  -15.8132 C   0  0  0  0  0  0  0  0  0  0  0  0
    4.5488  -48.5781  -20.9280 C   0  0  0  0  0  0  0  0  0  0  0  0
    5.7331  -49.3062  -21.4212 C   0  0  0  0  0  0  0  0  0  0  0  0
    5.5245  -50.6789  -21.9511 C   0  0  0  0  0  0  0  0  0  0  0  0
    6.5637  -51.2320  -22.7501 N   0  0  0  0  0  0  0  0  0  0  0  0
    7.4435  -51.6119  -22.2907 H   0  0  0  0  0  0  0  0  0  0  0  0
    6.5387  -51.3354  -24.1571 C   0  0  0  0  0  0  0  0  0  0  0  0
    5.9636  -52.4839  -24.7675 N   0  0  0  0  0  0  0  0  0  0  0  0
    7.0438  -50.4083  -24.9300 N   0  0  0  0  0  0  0  0  0  0  0  0
    6.3876  -52.8161  -25.6843 H   0  0  0  0  0  0  0  0  0  0  0  0
    5.1606  -52.9890  -24.3479 H   0  0  0  0  0  0  0  0  0  0  0  0
    7.0231  -50.4862  -25.9513 H   0  0  0  0  0  0  0  0  0  0  0  0
    0.9568  -51.2898  -19.6057 C   0  0  0  0  0  0  0  0  0  0  0  0
   -0.5378  -51.9987  -17.6645 C   0  0  0  0  0  0  0  0  0  0  0  0
   -0.4924  -53.2220  -18.0322 O   0  0  0  0  0  0  0  0  0  0  0  0
    0.1702  -51.0708  -18.4248 N   0  0  0  0  0  0  0  0  0  0  0  0
    0.1308  -50.0554  -18.0992 H   0  0  0  0  0  0  0  0  0  0  0  0
   -1.3372  -51.7058  -16.4720 C   0  0  0  0  0  0  0  0  0  0  0  0
   -4.8038  -53.2066  -15.6982 C   0  0  0  0  0  0  0  0  0  0  0  0
   -3.7178  -52.2296  -15.9081 C   0  0  0  0  0  0  0  0  0  0  0  0
   -4.0236  -51.0012  -15.7454 O   0  0  0  0  0  0  0  0  0  0  0  0
   -2.4205  -52.6528  -16.2670 N   0  0  0  0  0  0  0  0  0  0  0  0
   -2.2502  -53.6752  -16.3815 H   0  0  0  0  0  0  0  0  0  0  0  0
   -0.3990  -51.7197  -15.2737 C   0  0  0  0  0  0  0  0  0  0  0  0
   -0.2425  -50.4078  -14.6657 C   0  0  0  0  0  0  0  0  0  0  0  0
    0.1094  -50.3106  -13.3366 C   0  0  0  0  0  0  0  0  0  0  0  0
    0.2641  -49.0709  -12.7553 C   0  0  0  0  0  0  0  0  0  0  0  0
    0.0672  -47.9246  -13.5016 C   0  0  0  0  0  0  0  0  0  0  0  0
   -0.2868  -48.0000  -14.8380 C   0  0  0  0  0  0  0  0  0  0  0  0
   -0.4325  -49.2612  -15.3857 C   0  0  0  0  0  0  0  0  0  0  0  0
    0.3204  -51.1861  -20.8976 C   0  0  0  0  0  0  0  0  0  0  0  0
   -0.0537  -52.2989  -21.7090 C   0  0  0  0  0  0  0  0  0  0  0  0
   -0.5465  -53.5158  -21.2833 C   0  0  0  0  0  0  0  0  0  0  0  0
   -0.8775  -54.5219  -22.1583 C   0  0  0  0  0  0  0  0  0  0  0  0
   -0.7318  -54.3623  -23.5203 C   0  0  0  0  0  0  0  0  0  0  0  0
   -0.2460  -53.1651  -23.9555 C   0  0  0  0  0  0  0  0  0  0  0  0
    0.0852  -52.1588  -23.0800 C   0  0  0  0  0  0  0  0  0  0  0  0
 33 34  1  0  0  0
 34 35  2  0  0  0
 34 36  1  0  0  0
 36 32  1  0  0  0
 32 38  1  0  0  0
 38 39  1  0  0  0
 39 40  2  0  0  0
 40 41  1  0  0  0
 41 42  2  0  0  0
 42 43  1  0  0  0
 43 44  2  0  0  0
 32 28  1  0  0  0
 28 29  2  0  0  0
 28 30  1  0  0  0
 30 27  1  0  0  0
 27 45  1  0  0  0
 45 46  1  0  0  0
 46 47  2  0  0  0
 47 48  1  0  0  0
 48 49  2  0  0  0
 49 50  1  0  0  0
 50 51  2  0  0  0
 27  1  1  0  0  0
  1  2  2  0  0  0
  1  3  1  0  0  0
  3  5  1  0  0  0
  5 16  1  0  0  0
 16 17  1  0  0  0
 17 18  1  0  0  0
 18 19  1  0  0  0
 19 21  1  0  0  0
 21 22  1  0  0  0
 21 23  2  0  0  0
  5  6  1  0  0  0
  6  7  2  0  0  0
  6  8  1  0  0  0
  8  9  1  0  0  0
  9 10  1  0  0  0
 10 11  2  0  0  0
 11 12  1  0  0  0
 12 13  2  0  0  0
 13 14  1  0  0  0
 14 15  2  0  0  0
 44 39  1  0  0  0
 51 46  1  0  0  0
 15 10  1  0  0  0
 36 37  1  0  0  0
 30 31  1  0  0  0
  3  4  1  0  0  0
 19 20  1  0  0  0
 22 24  1  0  0  0
 22 25  1  0  0  0
 23 26  1  0  0  0
M  END
> <minimizedAffinity>
-6.86185

> <CNNscore>
0.2474884540

> <CNNaffinity>
6.3140039444

> <CNN_VS>
1.5626430511

> <CNNaffinity_variance>
0.8628224134

$$$$
[H]N=C(N([H])[H])N([H])C([H])([H])C([H])([H])C([H])([H])[C@@]([H])(C(=O)OC([H])([H])c1c([H])c([H])c([H])c([H])c1[H])N([H])C(=O)[C@@]([H])(N([H])C(=O)[C@@]([H])(N([H])C(=O)C([H])([H])[H])C([H])([H])c1c([H])c([H])c([H])c([H])c1[H])C([H])([H])c1c([H])c([H])c([H])c([H])c1[H]


 51 53  0  0  0  0  0  0  0  0999 V2000
    3.4997  -49.8772  -26.7153 C   0  0  0  0  0  0  0  0  0  0  0  0
    3.7422  -49.7918  -27.9443 O   0  0  0  0  0  0  0  0  0  0  0  0
    3.7954  -48.8053  -25.8832 N   0  0  0  0  0  0  0  0  0  0  0  0
    3.6228  -48.8706  -24.8605 H   0  0  0  0  0  0  0  0  0  0  0  0
    4.3594  -47.5410  -26.3761 C   0  0  0  0  0  0  0  0  0  0  0  0
    3.3459  -46.8643  -27.2397 C   0  0  0  0  0  0  0  0  0  0  0  0
    2.2192  -46.6164  -26.7352 O   0  0  0  0  0  0  0  0  0  0  0  0
    3.5362  -46.4818  -28.5428 O   0  0  0  0  0  0  0  0  0  0  0  0
    2.5024  -45.9883  -29.3716 C   0  0  0  0  0  0  0  0  0  0  0  0
    2.7753  -46.3482  -30.8054 C   0  0  0  0  0  0  0  0  0  0  0  0
    4.0510  -46.5440  -31.2411 C   0  0  0  0  0  0  0  0  0  0  0  0
    4.2776  -46.8729  -32.5586 C   0  0  0  0  0  0  0  0  0  0  0  0
    3.2601  -47.0164  -33.4746 C   0  0  0  0  0  0  0  0  0  0  0  0
    1.9676  -46.8186  -33.0359 C   0  0  0  0  0  0  0  0  0  0  0  0
    1.7487  -46.4909  -31.7209 C   0  0  0  0  0  0  0  0  0  0  0  0
    5.6526  -47.8383  -27.0776 C   0  0  0  0  0  0  0  0  0  0  0  0
    6.8930  -47.5387  -26.3376 C   0  0  0  0  0  0  0  0  0  0  0  0
    7.1951  -48.3647  -25.1397 C   0  0  0  0  0  0  0  0  0  0  0  0
    7.0261  -49.7721  -25.2611 N   0  0  0  0  0  0  0  0  0  0  0  0
    7.4466  -50.2892  -26.0889 H   0  0  0  0  0  0  0  0  0  0  0  0
    6.3272  -50.5880  -24.3465 C   0  0  0  0  0  0  0  0  0  0  0  0
    6.5442  -51.9935  -24.3498 N   0  0  0  0  0  0  0  0  0  0  0  0
    5.4659  -50.0945  -23.4940 N   0  0  0  0  0  0  0  0  0  0  0  0
    5.7204  -52.6175  -24.0998 H   0  0  0  0  0  0  0  0  0  0  0  0
    7.4650  -52.4098  -24.5841 H   0  0  0  0  0  0  0  0  0  0  0  0
    4.9609  -50.6898  -22.8306 H   0  0  0  0  0  0  0  0  0  0  0  0
    2.8954  -51.1598  -26.2261 C   0  0  0  0  0  0  0  0  0  0  0  0
    2.8685  -51.9146  -23.7901 C   0  0  0  0  0  0  0  0  0  0  0  0
    3.6924  -52.8597  -24.0387 O   0  0  0  0  0  0  0  0  0  0  0  0
    2.4926  -51.0923  -24.8497 N   0  0  0  0  0  0  0  0  0  0  0  0
    1.8123  -50.3019  -24.6240 H   0  0  0  0  0  0  0  0  0  0  0  0
    2.4069  -51.8002  -22.4041 C   0  0  0  0  0  0  0  0  0  0  0  0
    4.2590  -50.0862  -19.4886 C   0  0  0  0  0  0  0  0  0  0  0  0
    3.4801  -51.0701  -20.2652 C   0  0  0  0  0  0  0  0  0  0  0  0
    3.1044  -52.1159  -19.6373 O   0  0  0  0  0  0  0  0  0  0  0  0
    3.1778  -50.8457  -21.6250 N   0  0  0  0  0  0  0  0  0  0  0  0
    3.5212  -49.9659  -22.0670 H   0  0  0  0  0  0  0  0  0  0  0  0
    0.9435  -51.3837  -22.4390 C   0  0  0  0  0  0  0  0  0  0  0  0
    0.0416  -52.4636  -22.0704 C   0  0  0  0  0  0  0  0  0  0  0  0
   -0.1828  -53.4958  -22.9557 C   0  0  0  0  0  0  0  0  0  0  0  0
   -1.0323  -54.5246  -22.6110 C   0  0  0  0  0  0  0  0  0  0  0  0
   -1.6600  -54.5239  -21.3799 C   0  0  0  0  0  0  0  0  0  0  0  0
   -1.4485  -53.4967  -20.4761 C   0  0  0  0  0  0  0  0  0  0  0  0
   -0.5896  -52.4825  -20.8577 C   0  0  0  0  0  0  0  0  0  0  0  0
    2.0880  -51.9167  -27.1535 C   0  0  0  0  0  0  0  0  0  0  0  0
    0.6675  -52.0342  -27.0834 C   0  0  0  0  0  0  0  0  0  0  0  0
   -0.1540  -51.6386  -26.0474 C   0  0  0  0  0  0  0  0  0  0  0  0
   -1.5178  -51.7997  -26.0877 C   0  0  0  0  0  0  0  0  0  0  0  0
   -2.1388  -52.3710  -27.1784 C   0  0  0  0  0  0  0  0  0  0  0  0
   -1.3397  -52.7668  -28.2096 C   0  0  0  0  0  0  0  0  0  0  0  0
    0.0246  -52.6056  -28.1690 C   0  0  0  0  0  0  0  0  0  0  0  0
 33 34  1  0  0  0
 34 35  2  0  0  0
 34 36  1  0  0  0
 36 32  1  0  0  0
 32 38  1  0  0  0
 38 39  1  0  0  0
 39 40  2  0  0  0
 40 41  1  0  0  0
 41 42  2  0  0  0
 42 43  1  0  0  0
 43 44  2  0  0  0
 32 28  1  0  0  0
 28 29  2  0  0  0
 28 30  1  0  0  0
 30 27  1  0  0  0
 27 45  1  0  0  0
 45 46  1  0  0  0
 46 47  2  0  0  0
 47 48  1  0  0  0
 48 49  2  0  0  0
 49 50  1  0  0  0
 50 51  2  0  0  0
 27  1  1  0  0  0
  1  2  2  0  0  0
  1  3  1  0  0  0
  3  5  1  0  0  0
  5 16  1  0  0  0
 16 17  1  0  0  0
 17 18  1  0  0  0
 18 19  1  0  0  0
 19 21  1  0  0  0
 21 22  1  0  0  0
 21 23  2  0  0  0
  5  6  1  0  0  0
  6  7  2  0  0  0
  6  8  1  0  0  0
  8  9  1  0  0  0
  9 10  1  0  0  0
 10 11  2  0  0  0
 11 12  1  0  0  0
 12 13  2  0  0  0
 13 14  1  0  0  0
 14 15  2  0  0  0
 44 39  1  0  0  0
 51 46  1  0  0  0
 15 10  1  0  0  0
 36 37  1  0  0  0
 30 31  1  0  0  0
  3  4  1  0  0  0
 19 20  1  0  0  0
 22 24  1  0  0  0
 22 25  1  0  0  0
 23 26  1  0  0  0
M  END
> <minimizedAffinity>
-8.05332

> <CNNscore>
0.2467416525

> <CNNaffinity>
6.4862961769

> <CNN_VS>
1.6004394293

> <CNNaffinity_variance>
1.1224207878

$$$$
[H]c1c([H])c([H])c(C(=O)N([H])[C@]([H])(C(=O)[C@@]([H])(N([H])C(=O)[C@@]([H])(N([H])C(=O)[C@@]([H])(N([H])C(=O)OC([H])([H])c2c([H])c([H])c([H])c([H])c2[H])C([H])([H])c2c([H])c([H])c([H])c([H])c2[H])C([H])([H])C([H])(C([H])([H])[H])C([H])([H])[H])C([H])([H])c2c([H])c([H])c([H])c([H])c2[H])C([H])([H])C([H])(C([H])([H])[H])C([H])([H])[H])c([H])c1[H]


 58 61  0  0  0  0  0  0  0  0999 V2000
    1.3043  -51.7075  -21.4452 C   0  0  0  0  0  0  0  0  0  0  0  0
    1.8180  -50.7732  -20.5108 N   0  0  0  0  0  0  0  0  0  0  0  0
    2.9477  -51.1149  -19.7170 C   0  0  0  0  0  0  0  0  0  0  0  0
    3.5064  -52.2525  -19.9996 O   0  0  0  0  0  0  0  0  0  0  0  0
    1.4420  -49.8244  -20.4045 H   0  0  0  0  0  0  0  0  0  0  0  0
    3.5795  -50.3922  -18.6141 C   0  0  0  0  0  0  0  0  0  0  0  0
    3.4157  -48.9957  -18.8997 N   0  0  0  0  0  0  0  0  0  0  0  0
    3.0601  -47.7414  -19.3859 C   0  0  0  0  0  0  0  0  0  0  0  0
    2.3236  -47.4153  -20.3254 O   0  0  0  0  0  0  0  0  0  0  0  0
    2.9723  -49.4359  -20.1573 H   0  0  0  0  0  0  0  0  0  0  0  0
    3.6299  -46.6212  -18.7205 O   0  0  0  0  0  0  0  0  0  0  0  0
    3.5947  -46.5569  -17.2982 C   0  0  0  0  0  0  0  0  0  0  0  0
    4.6156  -45.4861  -16.9893 C   0  0  0  0  0  0  0  0  0  0  0  0
    4.8900  -45.1637  -15.7258 C   0  0  0  0  0  0  0  0  0  0  0  0
    5.7109  -44.0845  -15.3862 C   0  0  0  0  0  0  0  0  0  0  0  0
    6.2456  -43.3516  -16.4380 C   0  0  0  0  0  0  0  0  0  0  0  0
    5.9674  -43.6804  -17.7525 C   0  0  0  0  0  0  0  0  0  0  0  0
    5.1496  -44.7598  -18.0518 C   0  0  0  0  0  0  0  0  0  0  0  0
    3.1712  -50.8456  -17.2155 C   0  0  0  0  0  0  0  0  0  0  0  0
    1.8738  -50.3064  -16.8317 C   0  0  0  0  0  0  0  0  0  0  0  0
    1.5869  -49.1567  -16.1769 C   0  0  0  0  0  0  0  0  0  0  0  0
    0.2762  -48.7731  -15.8018 C   0  0  0  0  0  0  0  0  0  0  0  0
   -0.7558  -49.6004  -16.1142 C   0  0  0  0  0  0  0  0  0  0  0  0
   -0.4970  -50.7413  -16.7646 C   0  0  0  0  0  0  0  0  0  0  0  0
    0.7717  -51.1340  -17.1422 C   0  0  0  0  0  0  0  0  0  0  0  0
    1.5237  -51.3667  -22.9104 C   0  0  0  0  0  0  0  0  0  0  0  0
    1.5672  -50.1569  -23.1854 O   0  0  0  0  0  0  0  0  0  0  0  0
    1.6341  -52.4067  -23.7943 N   0  0  0  0  0  0  0  0  0  0  0  0
    1.6514  -53.3830  -23.1887 H   0  0  0  0  0  0  0  0  0  0  0  0
    1.8008  -52.7601  -25.1954 C   0  0  0  0  0  0  0  0  0  0  0  0
    3.1882  -52.5619  -25.6740 C   0  0  0  0  0  0  0  0  0  0  0  0
    3.4431  -53.2641  -26.7057 O   0  0  0  0  0  0  0  0  0  0  0  0
    4.2552  -51.7091  -25.1395 C   0  0  0  0  0  0  0  0  0  0  0  0
    3.8764  -50.3439  -25.5147 N   0  0  0  0  0  0  0  0  0  0  0  0
    3.6520  -49.4510  -26.4132 C   0  0  0  0  0  0  0  0  0  0  0  0
    3.6470  -49.4536  -27.6933 O   0  0  0  0  0  0  0  0  0  0  0  0
    3.6764  -49.8817  -24.4372 H   0  0  0  0  0  0  0  0  0  0  0  0
    3.3236  -48.0348  -25.9397 C   0  0  0  0  0  0  0  0  0  0  0  0
    3.5376  -47.7005  -24.6643 C   0  0  0  0  0  0  0  0  0  0  0  0
    3.3764  -46.3745  -24.2887 C   0  0  0  0  0  0  0  0  0  0  0  0
    2.9951  -45.4164  -25.2493 C   0  0  0  0  0  0  0  0  0  0  0  0
    2.7819  -45.8185  -26.5556 C   0  0  0  0  0  0  0  0  0  0  0  0
    2.9465  -47.1658  -26.9239 C   0  0  0  0  0  0  0  0  0  0  0  0
    4.7332  -51.7970  -23.7724 C   0  0  0  0  0  0  0  0  0  0  0  0
    6.1632  -51.3889  -23.4789 C   0  0  0  0  0  0  0  0  0  0  0  0
    6.1818  -50.7111  -22.1035 C   0  0  0  0  0  0  0  0  0  0  0  0
    6.6508  -50.3342  -24.4544 C   0  0  0  0  0  0  0  0  0  0  0  0
    0.7908  -51.8556  -25.8428 C   0  0  0  0  0  0  0  0  0  0  0  0
   -0.2379  -52.1656  -26.7531 C   0  0  0  0  0  0  0  0  0  0  0  0
    0.0964  -52.5417  -28.0609 C   0  0  0  0  0  0  0  0  0  0  0  0
   -0.9208  -52.7989  -28.9480 C   0  0  0  0  0  0  0  0  0  0  0  0
   -2.2333  -52.6971  -28.5831 C   0  0  0  0  0  0  0  0  0  0  0  0
   -2.5887  -52.3310  -27.3137 C   0  0  0  0  0  0  0  0  0  0  0  0
   -1.5604  -52.0741  -26.4330 C   0  0  0  0  0  0  0  0  0  0  0  0
   -0.1775  -51.8767  -21.1912 C   0  0  0  0  0  0  0  0  0  0  0  0
   -1.1272  -53.9761  -21.8960 C   0  0  0  0  0  0  0  0  0  0  0  0
   -0.6568  -53.1539  -20.6692 C   0  0  0  0  0  0  0  0  0  0  0  0
    0.2551  -54.0367  -19.9233 C   0  0  0  0  0  0  0  0  0  0  0  0
 56 57  1  0  0  0
 57 58  1  0  0  0
 57 55  1  0  0  0
 55  1  1  0  0  0
  1  2  1  0  0  0
  2  3  1  0  0  0
  3  4  2  0  0  0
  3  6  1  0  0  0
  6 19  1  0  0  0
 19 20  1  0  0  0
 20 21  2  0  0  0
 21 22  1  0  0  0
 22 23  2  0  0  0
 23 24  1  0  0  0
 24 25  2  0  0  0
  6  7  1  0  0  0
  7  8  1  0  0  0
  8  9  2  0  0  0
  8 11  1  0  0  0
 11 12  1  0  0  0
 12 13  1  0  0  0
 13 14  2  0  0  0
 14 15  1  0  0  0
 15 16  2  0  0  0
 16 17  1  0  0  0
 17 18  2  0  0  0
  1 26  1  0  0  0
 26 27  2  0  0  0
 26 28  1  0  0  0
 28 30  1  0  0  0
 30 48  1  0  0  0
 48 49  1  0  0  0
 49 50  2  0  0  0
 50 51  1  0  0  0
 51 52  2  0  0  0
 52 53  1  0  0  0
 53 54  2  0  0  0
 30 31  1  0  0  0
 31 32  2  0  0  0
 31 33  1  0  0  0
 33 44  1  0  0  0
 44 45  1  0  0  0
 45 46  1  0  0  0
 45 47  1  0  0  0
 33 34  1  0  0  0
 34 35  1  0  0  0
 35 36  2  0  0  0
 35 38  1  0  0  0
 38 39  2  0  0  0
 39 40  1  0  0  0
 40 41  2  0  0  0
 41 42  1  0  0  0
 42 43  2  0  0  0
 25 20  1  0  0  0
 18 13  1  0  0  0
 54 49  1  0  0  0
 43 38  1  0  0  0
  2  5  1  0  0  0
  7 10  1  0  0  0
 28 29  1  0  0  0
 34 37  1  0  0  0
M  END
> <minimizedAffinity>
-7.78763

> <CNNscore>
0.5028925538

> <CNNaffinity>
7.9564008713

> <CNN_VS>
4.0012149811

> <CNNaffinity_variance>
0.2488961220

$$$$
[H]c1c([H])c([H])c(C(=O)N([H])[C@]([H])(C(=O)[C@@]([H])(N([H])C(=O)[C@@]([H])(N([H])C(=O)[C@@]([H])(N([H])C(=O)OC([H])([H])c2c([H])c([H])c([H])c([H])c2[H])C([H])([H])c2c([H])c([H])c([H])c([H])c2[H])C([H])([H])C([H])(C([H])([H])[H])C([H])([H])[H])C([H])([H])c2c([H])c([H])c([H])c([H])c2[H])C([H])([H])C([H])(C([H])([H])[H])C([H])([H])[H])c([H])c1[H]


 58 61  0  0  0  0  0  0  0  0999 V2000
    1.3301  -51.7218  -21.5131 C   0  0  0  0  0  0  0  0  0  0  0  0
    1.5584  -50.6593  -20.6027 N   0  0  0  0  0  0  0  0  0  0  0  0
    2.3177  -50.8900  -19.4223 C   0  0  0  0  0  0  0  0  0  0  0  0
    2.8542  -52.0684  -19.3238 O   0  0  0  0  0  0  0  0  0  0  0  0
    1.2396  -49.6989  -20.7730 H   0  0  0  0  0  0  0  0  0  0  0  0
    2.5830  -50.0114  -18.2841 C   0  0  0  0  0  0  0  0  0  0  0  0
    1.9574  -50.6232  -17.1470 N   0  0  0  0  0  0  0  0  0  0  0  0
    1.6269  -51.1897  -15.9198 C   0  0  0  0  0  0  0  0  0  0  0  0
    2.3281  -51.4581  -14.9360 O   0  0  0  0  0  0  0  0  0  0  0  0
    3.2627  -51.0015  -16.7933 H   0  0  0  0  0  0  0  0  0  0  0  0
    0.2619  -51.5424  -15.7339 O   0  0  0  0  0  0  0  0  0  0  0  0
   -0.5536  -51.8149  -16.8692 C   0  0  0  0  0  0  0  0  0  0  0  0
   -1.9521  -51.7118  -16.3053 C   0  0  0  0  0  0  0  0  0  0  0  0
   -2.8944  -52.5749  -16.6833 C   0  0  0  0  0  0  0  0  0  0  0  0
   -4.2344  -52.4367  -16.3100 C   0  0  0  0  0  0  0  0  0  0  0  0
   -4.5499  -51.3473  -15.5081 C   0  0  0  0  0  0  0  0  0  0  0  0
   -3.5777  -50.4476  -15.1097 C   0  0  0  0  0  0  0  0  0  0  0  0
   -2.2572  -50.6178  -15.4981 C   0  0  0  0  0  0  0  0  0  0  0  0
    4.0394  -49.5921  -18.1065 C   0  0  0  0  0  0  0  0  0  0  0  0
    4.4001  -48.5044  -19.0054 C   0  0  0  0  0  0  0  0  0  0  0  0
    3.5987  -47.6000  -19.6160 C   0  0  0  0  0  0  0  0  0  0  0  0
    4.0693  -46.6230  -20.5270 C   0  0  0  0  0  0  0  0  0  0  0  0
    5.3985  -46.5855  -20.8079 C   0  0  0  0  0  0  0  0  0  0  0  0
    6.2111  -47.4677  -20.2137 C   0  0  0  0  0  0  0  0  0  0  0  0
    5.7751  -48.4264  -19.3209 C   0  0  0  0  0  0  0  0  0  0  0  0
    1.5911  -51.4061  -22.9771 C   0  0  0  0  0  0  0  0  0  0  0  0
    1.7652  -50.2079  -23.2511 O   0  0  0  0  0  0  0  0  0  0  0  0
    1.5933  -52.4518  -23.8612 N   0  0  0  0  0  0  0  0  0  0  0  0
    1.5032  -53.4244  -23.2562 H   0  0  0  0  0  0  0  0  0  0  0  0
    1.7271  -52.8207  -25.2619 C   0  0  0  0  0  0  0  0  0  0  0  0
    3.1211  -52.7139  -25.7505 C   0  0  0  0  0  0  0  0  0  0  0  0
    3.3230  -53.4344  -26.7814 O   0  0  0  0  0  0  0  0  0  0  0  0
    4.2445  -51.9299  -25.2265 C   0  0  0  0  0  0  0  0  0  0  0  0
    3.9071  -50.5347  -25.5226 N   0  0  0  0  0  0  0  0  0  0  0  0
    3.6667  -49.5962  -26.3690 C   0  0  0  0  0  0  0  0  0  0  0  0
    3.5776  -49.5456  -27.6450 O   0  0  0  0  0  0  0  0  0  0  0  0
    3.8004  -50.1091  -24.4171 H   0  0  0  0  0  0  0  0  0  0  0  0
    3.4376  -48.1876  -25.8204 C   0  0  0  0  0  0  0  0  0  0  0  0
    3.7979  -47.9025  -24.5662 C   0  0  0  0  0  0  0  0  0  0  0  0
    3.7215  -46.5856  -24.1356 C   0  0  0  0  0  0  0  0  0  0  0  0
    3.2711  -45.5852  -25.0201 C   0  0  0  0  0  0  0  0  0  0  0  0
    2.9061  -45.9370  -26.3073 C   0  0  0  0  0  0  0  0  0  0  0  0
    2.9860  -47.2754  -26.7315 C   0  0  0  0  0  0  0  0  0  0  0  0
    4.7765  -52.1005  -23.8875 C   0  0  0  0  0  0  0  0  0  0  0  0
    5.3055  -50.8809  -23.1590 C   0  0  0  0  0  0  0  0  0  0  0  0
    6.7968  -50.7497  -23.4915 C   0  0  0  0  0  0  0  0  0  0  0  0
    5.2428  -51.0626  -21.6541 C   0  0  0  0  0  0  0  0  0  0  0  0
    0.7728  -51.8558  -25.9065 C   0  0  0  0  0  0  0  0  0  0  0  0
   -0.2896  -52.1045  -26.7967 C   0  0  0  0  0  0  0  0  0  0  0  0
   -1.6083  -51.9865  -26.3377 C   0  0  0  0  0  0  0  0  0  0  0  0
   -2.6321  -52.2747  -27.2076 C   0  0  0  0  0  0  0  0  0  0  0  0
   -2.3911  -52.6673  -28.4936 C   0  0  0  0  0  0  0  0  0  0  0  0
   -1.1140  -52.7920  -28.9681 C   0  0  0  0  0  0  0  0  0  0  0  0
   -0.0953  -52.5019  -28.0866 C   0  0  0  0  0  0  0  0  0  0  0  0
   -0.0987  -52.1932  -21.3538 C   0  0  0  0  0  0  0  0  0  0  0  0
   -1.5137  -53.6089  -20.0124 C   0  0  0  0  0  0  0  0  0  0  0  0
   -0.3404  -53.5956  -21.0250 C   0  0  0  0  0  0  0  0  0  0  0  0
   -0.7152  -54.5489  -22.0823 C   0  0  0  0  0  0  0  0  0  0  0  0
 56 57  1  0  0  0
 57 58  1  0  0  0
 57 55  1  0  0  0
 55  1  1  0  0  0
  1  2  1  0  0  0
  2  3  1  0  0  0
  3  4  2  0  0  0
  3  6  1  0  0  0
  6 19  1  0  0  0
 19 20  1  0  0  0
 20 21  2  0  0  0
 21 22  1  0  0  0
 22 23  2  0  0  0
 23 24  1  0  0  0
 24 25  2  0  0  0
  6  7  1  0  0  0
  7  8  1  0  0  0
  8  9  2  0  0  0
  8 11  1  0  0  0
 11 12  1  0  0  0
 12 13  1  0  0  0
 13 14  2  0  0  0
 14 15  1  0  0  0
 15 16  2  0  0  0
 16 17  1  0  0  0
 17 18  2  0  0  0
  1 26  1  0  0  0
 26 27  2  0  0  0
 26 28  1  0  0  0
 28 30  1  0  0  0
 30 48  1  0  0  0
 48 49  1  0  0  0
 49 50  2  0  0  0
 50 51  1  0  0  0
 51 52  2  0  0  0
 52 53  1  0  0  0
 53 54  2  0  0  0
 30 31  1  0  0  0
 31 32  2  0  0  0
 31 33  1  0  0  0
 33 44  1  0  0  0
 44 45  1  0  0  0
 45 46  1  0  0  0
 45 47  1  0  0  0
 33 34  1  0  0  0
 34 35  1  0  0  0
 35 36  2  0  0  0
 35 38  1  0  0  0
 38 39  2  0  0  0
 39 40  1  0  0  0
 40 41  2  0  0  0
 41 42  1  0  0  0
 42 43  2  0  0  0
 25 20  1  0  0  0
 18 13  1  0  0  0
 54 49  1  0  0  0
 43 38  1  0  0  0
  2  5  1  0  0  0
  7 10  1  0  0  0
 28 29  1  0  0  0
 34 37  1  0  0  0
M  END
> <minimizedAffinity>
-8.84453

> <CNNscore>
0.4152314365

> <CNNaffinity>
7.9102144241

> <CNN_VS>
3.2845697403

> <CNNaffinity_variance>
0.8230342865

$$$$
[H]c1c([H])c([H])c(C(=O)N([H])[C@]([H])(C(=O)[C@@]([H])(N([H])C(=O)[C@@]([H])(N([H])C(=O)[C@@]([H])(N([H])C(=O)OC([H])([H])c2c([H])c([H])c([H])c([H])c2[H])C([H])([H])c2c([H])c([H])c([H])c([H])c2[H])C([H])([H])C([H])(C([H])([H])[H])C([H])([H])[H])C([H])([H])c2c([H])c([H])c([H])c([H])c2[H])C([H])([H])C([H])(C([H])([H])[H])C([H])([H])[H])c([H])c1[H]


 58 61  0  0  0  0  0  0  0  0999 V2000
    4.0871  -51.5459  -22.1799 C   0  0  0  0  0  0  0  0  0  0  0  0
    3.1889  -51.0014  -23.1320 N   0  0  0  0  0  0  0  0  0  0  0  0
    2.7595  -51.7932  -24.2328 C   0  0  0  0  0  0  0  0  0  0  0  0
    3.1503  -53.0314  -24.2174 O   0  0  0  0  0  0  0  0  0  0  0  0
    2.7841  -50.0625  -23.0456 H   0  0  0  0  0  0  0  0  0  0  0  0
    1.9531  -51.4315  -25.3976 C   0  0  0  0  0  0  0  0  0  0  0  0
    2.6177  -50.3232  -26.0209 N   0  0  0  0  0  0  0  0  0  0  0  0
    3.2305  -49.1186  -26.3520 C   0  0  0  0  0  0  0  0  0  0  0  0
    3.3834  -48.0801  -25.6967 O   0  0  0  0  0  0  0  0  0  0  0  0
    2.0131  -49.5577  -25.0106 H   0  0  0  0  0  0  0  0  0  0  0  0
    3.7756  -49.0265  -27.6623 O   0  0  0  0  0  0  0  0  0  0  0  0
    4.6968  -47.9842  -27.9676 C   0  0  0  0  0  0  0  0  0  0  0  0
    4.0222  -47.2717  -29.1173 C   0  0  0  0  0  0  0  0  0  0  0  0
    3.0239  -46.4197  -28.8868 C   0  0  0  0  0  0  0  0  0  0  0  0
    2.2695  -45.8490  -29.9159 C   0  0  0  0  0  0  0  0  0  0  0  0
    2.6126  -46.2063  -31.2136 C   0  0  0  0  0  0  0  0  0  0  0  0
    3.6486  -47.0886  -31.4619 C   0  0  0  0  0  0  0  0  0  0  0  0
    4.3770  -47.6339  -30.4151 C   0  0  0  0  0  0  0  0  0  0  0  0
    1.5717  -52.5900  -26.3148 C   0  0  0  0  0  0  0  0  0  0  0  0
    0.2151  -52.4484  -26.8256 C   0  0  0  0  0  0  0  0  0  0  0  0
   -0.9150  -52.1056  -26.1636 C   0  0  0  0  0  0  0  0  0  0  0  0
   -2.1962  -52.0662  -26.7660 C   0  0  0  0  0  0  0  0  0  0  0  0
   -2.3041  -52.3887  -28.0818 C   0  0  0  0  0  0  0  0  0  0  0  0
   -1.1998  -52.7278  -28.7580 C   0  0  0  0  0  0  0  0  0  0  0  0
    0.0590  -52.7705  -28.1924 C   0  0  0  0  0  0  0  0  0  0  0  0
    3.6226  -51.5046  -20.7329 C   0  0  0  0  0  0  0  0  0  0  0  0
    3.1585  -52.5637  -20.2816 O   0  0  0  0  0  0  0  0  0  0  0  0
    3.7354  -50.3151  -20.0639 N   0  0  0  0  0  0  0  0  0  0  0  0
    4.2974  -49.5800  -20.7451 H   0  0  0  0  0  0  0  0  0  0  0  0
    3.4784  -49.6331  -18.8050 C   0  0  0  0  0  0  0  0  0  0  0  0
    2.8041  -50.5007  -17.8121 C   0  0  0  0  0  0  0  0  0  0  0  0
    3.6175  -51.3002  -17.2451 O   0  0  0  0  0  0  0  0  0  0  0  0
    1.3922  -50.5598  -17.4190 C   0  0  0  0  0  0  0  0  0  0  0  0
    0.7463  -51.3896  -18.4399 N   0  0  0  0  0  0  0  0  0  0  0  0
   -0.1306  -52.2677  -18.7789 C   0  0  0  0  0  0  0  0  0  0  0  0
   -1.0560  -52.8933  -18.1538 O   0  0  0  0  0  0  0  0  0  0  0  0
    1.3461  -51.0349  -19.4038 H   0  0  0  0  0  0  0  0  0  0  0  0
   -0.1346  -52.7420  -20.2325 C   0  0  0  0  0  0  0  0  0  0  0  0
   -0.2547  -54.0452  -20.4997 C   0  0  0  0  0  0  0  0  0  0  0  0
   -0.4071  -54.4415  -21.8208 C   0  0  0  0  0  0  0  0  0  0  0  0
   -0.4328  -53.4724  -22.8436 C   0  0  0  0  0  0  0  0  0  0  0  0
   -0.2993  -52.1364  -22.5108 C   0  0  0  0  0  0  0  0  0  0  0  0
   -0.1434  -51.7471  -21.1684 C   0  0  0  0  0  0  0  0  0  0  0  0
    0.9543  -50.8904  -16.0759 C   0  0  0  0  0  0  0  0  0  0  0  0
   -0.0566  -49.9843  -15.4016 C   0  0  0  0  0  0  0  0  0  0  0  0
   -1.4443  -50.6068  -15.5975 C   0  0  0  0  0  0  0  0  0  0  0  0
   -0.1244  -48.6279  -16.0778 C   0  0  0  0  0  0  0  0  0  0  0  0
    2.6489  -48.4705  -19.2712 C   0  0  0  0  0  0  0  0  0  0  0  0
    2.8758  -47.5758  -20.3348 C   0  0  0  0  0  0  0  0  0  0  0  0
    2.2729  -47.8215  -21.5756 C   0  0  0  0  0  0  0  0  0  0  0  0
    2.5396  -46.9623  -22.6142 C   0  0  0  0  0  0  0  0  0  0  0  0
    3.3691  -45.8878  -22.4608 C   0  0  0  0  0  0  0  0  0  0  0  0
    3.9721  -45.6246  -21.2613 C   0  0  0  0  0  0  0  0  0  0  0  0
    3.6986  -46.4936  -20.2274 C   0  0  0  0  0  0  0  0  0  0  0  0
    5.4102  -50.8216  -22.2975 C   0  0  0  0  0  0  0  0  0  0  0  0
    6.0732  -48.5051  -22.2726 C   0  0  0  0  0  0  0  0  0  0  0  0
    5.4873  -49.6393  -23.1516 C   0  0  0  0  0  0  0  0  0  0  0  0
    6.3088  -49.6619  -24.3731 C   0  0  0  0  0  0  0  0  0  0  0  0
 56 57  1  0  0  0
 57 58  1  0  0  0
 57 55  1  0  0  0
 55  1  1  0  0  0
  1  2  1  0  0  0
  2  3  1  0  0  0
  3  4  2  0  0  0
  3  6  1  0  0  0
  6 19  1  0  0  0
 19 20  1  0  0  0
 20 21  2  0  0  0
 21 22  1  0  0  0
 22 23  2  0  0  0
 23 24  1  0  0  0
 24 25  2  0  0  0
  6  7  1  0  0  0
  7  8  1  0  0  0
  8  9  2  0  0  0
  8 11  1  0  0  0
 11 12  1  0  0  0
 12 13  1  0  0  0
 13 14  2  0  0  0
 14 15  1  0  0  0
 15 16  2  0  0  0
 16 17  1  0  0  0
 17 18  2  0  0  0
  1 26  1  0  0  0
 26 27  2  0  0  0
 26 28  1  0  0  0
 28 30  1  0  0  0
 30 48  1  0  0  0
 48 49  1  0  0  0
 49 50  2  0  0  0
 50 51  1  0  0  0
 51 52  2  0  0  0
 52 53  1  0  0  0
 53 54  2  0  0  0
 30 31  1  0  0  0
 31 32  2  0  0  0
 31 33  1  0  0  0
 33 44  1  0  0  0
 44 45  1  0  0  0
 45 46  1  0  0  0
 45 47  1  0  0  0
 33 34  1  0  0  0
 34 35  1  0  0  0
 35 36  2  0  0  0
 35 38  1  0  0  0
 38 39  2  0  0  0
 39 40  1  0  0  0
 40 41  2  0  0  0
 41 42  1  0  0  0
 42 43  2  0  0  0
 25 20  1  0  0  0
 18 13  1  0  0  0
 54 49  1  0  0  0
 43 38  1  0  0  0
  2  5  1  0  0  0
  7 10  1  0  0  0
 28 29  1  0  0  0
 34 37  1  0  0  0
M  END
> <minimizedAffinity>
-8.53183

> <CNNscore>
0.2992950380

> <CNNaffinity>
7.6932234764

> <CNN_VS>
2.3025436401

> <CNNaffinity_variance>
0.4820666909

$$$$
[H]c1c([H])c([H])c(C(=O)N([H])[C@]([H])(C(=O)[C@@]([H])(N([H])C(=O)[C@@]([H])(N([H])C(=O)[C@@]([H])(N([H])C(=O)OC([H])([H])c2c([H])c([H])c([H])c([H])c2[H])C([H])([H])c2c([H])c([H])c([H])c([H])c2[H])C([H])([H])C([H])(C([H])([H])[H])C([H])([H])[H])C([H])([H])c2c([H])c([H])c([H])c([H])c2[H])C([H])([H])C([H])(C([H])([H])[H])C([H])([H])[H])c([H])c1[H]


 58 61  0  0  0  0  0  0  0  0999 V2000
    1.2312  -51.6062  -21.3890 C   0  0  0  0  0  0  0  0  0  0  0  0
    1.5984  -50.5974  -20.4632 N   0  0  0  0  0  0  0  0  0  0  0  0
    2.6056  -50.8598  -19.4937 C   0  0  0  0  0  0  0  0  0  0  0  0
    3.2080  -52.0043  -19.6087 O   0  0  0  0  0  0  0  0  0  0  0  0
    1.2035  -49.6505  -20.4821 H   0  0  0  0  0  0  0  0  0  0  0  0
    3.0672  -50.0476  -18.3689 C   0  0  0  0  0  0  0  0  0  0  0  0
    3.5452  -48.8162  -18.9290 N   0  0  0  0  0  0  0  0  0  0  0  0
    3.7929  -47.4975  -19.2977 C   0  0  0  0  0  0  0  0  0  0  0  0
    3.2076  -46.4489  -18.9990 O   0  0  0  0  0  0  0  0  0  0  0  0
    2.2754  -48.3192  -18.5933 H   0  0  0  0  0  0  0  0  0  0  0  0
    4.8916  -47.2826  -20.1746 O   0  0  0  0  0  0  0  0  0  0  0  0
    6.1968  -47.6921  -19.7783 C   0  0  0  0  0  0  0  0  0  0  0  0
    6.9689  -47.6410  -21.0767 C   0  0  0  0  0  0  0  0  0  0  0  0
    8.2523  -47.9978  -21.1097 C   0  0  0  0  0  0  0  0  0  0  0  0
    9.0506  -47.8299  -22.2448 C   0  0  0  0  0  0  0  0  0  0  0  0
    8.4398  -47.2723  -23.3608 C   0  0  0  0  0  0  0  0  0  0  0  0
    7.1076  -46.9008  -23.3357 C   0  0  0  0  0  0  0  0  0  0  0  0
    6.3455  -47.0843  -22.1915 C   0  0  0  0  0  0  0  0  0  0  0  0
    2.0869  -49.9224  -17.2062 C   0  0  0  0  0  0  0  0  0  0  0  0
    2.7411  -50.1441  -15.9239 C   0  0  0  0  0  0  0  0  0  0  0  0
    3.3724  -51.2515  -15.4676 C   0  0  0  0  0  0  0  0  0  0  0  0
    3.9159  -51.3643  -14.1647 C   0  0  0  0  0  0  0  0  0  0  0  0
    3.8015  -50.3054  -13.3205 C   0  0  0  0  0  0  0  0  0  0  0  0
    3.1842  -49.1983  -13.7505 C   0  0  0  0  0  0  0  0  0  0  0  0
    2.6494  -49.0650  -15.0165 C   0  0  0  0  0  0  0  0  0  0  0  0
    1.4817  -51.2832  -22.8533 C   0  0  0  0  0  0  0  0  0  0  0  0
    1.5861  -50.0782  -23.1329 O   0  0  0  0  0  0  0  0  0  0  0  0
    1.5512  -52.3315  -23.7316 N   0  0  0  0  0  0  0  0  0  0  0  0
    1.5153  -53.3046  -23.1218 H   0  0  0  0  0  0  0  0  0  0  0  0
    1.7151  -52.6990  -25.1294 C   0  0  0  0  0  0  0  0  0  0  0  0
    3.1041  -52.5165  -25.6095 C   0  0  0  0  0  0  0  0  0  0  0  0
    3.3506  -53.2231  -26.6403 O   0  0  0  0  0  0  0  0  0  0  0  0
    4.1806  -51.6742  -25.0774 C   0  0  0  0  0  0  0  0  0  0  0  0
    3.8217  -50.3069  -25.4641 N   0  0  0  0  0  0  0  0  0  0  0  0
    3.6301  -49.4129  -26.3690 C   0  0  0  0  0  0  0  0  0  0  0  0
    3.6642  -49.4157  -27.6486 O   0  0  0  0  0  0  0  0  0  0  0  0
    3.5918  -49.8433  -24.3932 H   0  0  0  0  0  0  0  0  0  0  0  0
    3.2960  -47.9946  -25.9058 C   0  0  0  0  0  0  0  0  0  0  0  0
    3.5213  -47.6462  -24.6361 C   0  0  0  0  0  0  0  0  0  0  0  0
    3.3540  -46.3178  -24.2716 C   0  0  0  0  0  0  0  0  0  0  0  0
    2.9549  -45.3721  -25.2373 C   0  0  0  0  0  0  0  0  0  0  0  0
    2.7306  -45.7886  -26.5372 C   0  0  0  0  0  0  0  0  0  0  0  0
    2.9015  -47.1381  -26.8941 C   0  0  0  0  0  0  0  0  0  0  0  0
    4.6526  -51.7585  -23.7080 C   0  0  0  0  0  0  0  0  0  0  0  0
    6.1196  -51.4956  -23.4315 C   0  0  0  0  0  0  0  0  0  0  0  0
    6.2348  -50.9549  -22.0012 C   0  0  0  0  0  0  0  0  0  0  0  0
    6.6641  -50.3955  -24.3232 C   0  0  0  0  0  0  0  0  0  0  0  0
    0.7125  -51.7923  -25.7852 C   0  0  0  0  0  0  0  0  0  0  0  0
   -0.3276  -52.1043  -26.6817 C   0  0  0  0  0  0  0  0  0  0  0  0
   -0.0094  -52.4980  -27.9883 C   0  0  0  0  0  0  0  0  0  0  0  0
   -1.0374  -52.7570  -28.8624 C   0  0  0  0  0  0  0  0  0  0  0  0
   -2.3453  -52.6404  -28.4857 C   0  0  0  0  0  0  0  0  0  0  0  0
   -2.6851  -52.2568  -27.2172 C   0  0  0  0  0  0  0  0  0  0  0  0
   -1.6461  -51.9983  -26.3497 C   0  0  0  0  0  0  0  0  0  0  0  0
   -0.2346  -51.9268  -21.1950 C   0  0  0  0  0  0  0  0  0  0  0  0
   -1.2349  -54.0312  -21.8090 C   0  0  0  0  0  0  0  0  0  0  0  0
   -0.5992  -53.2296  -20.6447 C   0  0  0  0  0  0  0  0  0  0  0  0
    0.4362  -54.1075  -20.0747 C   0  0  0  0  0  0  0  0  0  0  0  0
 56 57  1  0  0  0
 57 58  1  0  0  0
 57 55  1  0  0  0
 55  1  1  0  0  0
  1  2  1  0  0  0
  2  3  1  0  0  0
  3  4  2  0  0  0
  3  6  1  0  0  0
  6 19  1  0  0  0
 19 20  1  0  0  0
 20 21  2  0  0  0
 21 22  1  0  0  0
 22 23  2  0  0  0
 23 24  1  0  0  0
 24 25  2  0  0  0
  6  7  1  0  0  0
  7  8  1  0  0  0
  8  9  2  0  0  0
  8 11  1  0  0  0
 11 12  1  0  0  0
 12 13  1  0  0  0
 13 14  2  0  0  0
 14 15  1  0  0  0
 15 16  2  0  0  0
 16 17  1  0  0  0
 17 18  2  0  0  0
  1 26  1  0  0  0
 26 27  2  0  0  0
 26 28  1  0  0  0
 28 30  1  0  0  0
 30 48  1  0  0  0
 48 49  1  0  0  0
 49 50  2  0  0  0
 50 51  1  0  0  0
 51 52  2  0  0  0
 52 53  1  0  0  0
 53 54  2  0  0  0
 30 31  1  0  0  0
 31 32  2  0  0  0
 31 33  1  0  0  0
 33 44  1  0  0  0
 44 45  1  0  0  0
 45 46  1  0  0  0
 45 47  1  0  0  0
 33 34  1  0  0  0
 34 35  1  0  0  0
 35 36  2  0  0  0
 35 38  1  0  0  0
 38 39  2  0  0  0
 39 40  1  0  0  0
 40 41  2  0  0  0
 41 42  1  0  0  0
 42 43  2  0  0  0
 25 20  1  0  0  0
 18 13  1  0  0  0
 54 49  1  0  0  0
 43 38  1  0  0  0
  2  5  1  0  0  0
  7 10  1  0  0  0
 28 29  1  0  0  0
 34 37  1  0  0  0
M  END
> <minimizedAffinity>
-7.72902

> <CNNscore>
0.2706793845

> <CNNaffinity>
7.6289834976

> <CNN_VS>
2.0650086403

> <CNNaffinity_variance>
0.7244856358

$$$$
[H]c1c([H])c([H])c(C(=O)N([H])[C@]([H])(C(=O)[C@@]([H])(N([H])C(=O)[C@@]([H])(N([H])C(=O)[C@@]([H])(N([H])C(=O)OC([H])([H])c2c([H])c([H])c([H])c([H])c2[H])C([H])([H])c2c([H])c([H])c([H])c([H])c2[H])C([H])([H])C([H])(C([H])([H])[H])C([H])([H])[H])C([H])([H])c2c([H])c([H])c([H])c([H])c2[H])C([H])([H])C([H])(C([H])([H])[H])C([H])([H])[H])c([H])c1[H]


 58 61  0  0  0  0  0  0  0  0999 V2000
    4.2169  -51.5479  -21.8578 C   0  0  0  0  0  0  0  0  0  0  0  0
    3.3990  -51.0167  -22.8868 N   0  0  0  0  0  0  0  0  0  0  0  0
    3.0825  -51.8140  -24.0213 C   0  0  0  0  0  0  0  0  0  0  0  0
    3.4899  -53.0459  -23.9705 O   0  0  0  0  0  0  0  0  0  0  0  0
    2.9733  -50.0843  -22.8374 H   0  0  0  0  0  0  0  0  0  0  0  0
    2.3779  -51.4640  -25.2538 C   0  0  0  0  0  0  0  0  0  0  0  0
    3.0204  -50.2880  -25.7665 N   0  0  0  0  0  0  0  0  0  0  0  0
    3.5316  -49.2430  -26.5299 C   0  0  0  0  0  0  0  0  0  0  0  0
    3.5047  -49.0427  -27.7508 O   0  0  0  0  0  0  0  0  0  0  0  0
    2.9988  -50.9675  -26.9952 H   0  0  0  0  0  0  0  0  0  0  0  0
    4.2170  -48.2188  -25.8203 O   0  0  0  0  0  0  0  0  0  0  0  0
    5.4515  -47.7200  -26.3258 C   0  0  0  0  0  0  0  0  0  0  0  0
    5.4910  -46.3130  -25.7750 C   0  0  0  0  0  0  0  0  0  0  0  0
    6.3814  -45.9821  -24.8403 C   0  0  0  0  0  0  0  0  0  0  0  0
    6.3661  -44.7439  -24.1919 C   0  0  0  0  0  0  0  0  0  0  0  0
    5.3715  -43.8521  -24.5725 C   0  0  0  0  0  0  0  0  0  0  0  0
    4.4445  -44.1867  -25.5430 C   0  0  0  0  0  0  0  0  0  0  0  0
    4.4917  -45.4246  -26.1667 C   0  0  0  0  0  0  0  0  0  0  0  0
    2.1815  -52.6091  -26.2431 C   0  0  0  0  0  0  0  0  0  0  0  0
    0.8701  -52.5562  -26.8747 C   0  0  0  0  0  0  0  0  0  0  0  0
   -0.3282  -52.2407  -26.3292 C   0  0  0  0  0  0  0  0  0  0  0  0
   -1.5518  -52.2899  -27.0406 C   0  0  0  0  0  0  0  0  0  0  0  0
   -1.5289  -52.6738  -28.3441 C   0  0  0  0  0  0  0  0  0  0  0  0
   -0.3552  -52.9874  -28.9062 C   0  0  0  0  0  0  0  0  0  0  0  0
    0.8495  -52.9441  -28.2331 C   0  0  0  0  0  0  0  0  0  0  0  0
    3.6415  -51.4772  -20.4525 C   0  0  0  0  0  0  0  0  0  0  0  0
    3.1274  -52.5225  -20.0235 O   0  0  0  0  0  0  0  0  0  0  0  0
    3.7199  -50.2790  -19.7941 N   0  0  0  0  0  0  0  0  0  0  0  0
    4.3446  -49.5628  -20.4398 H   0  0  0  0  0  0  0  0  0  0  0  0
    3.3759  -49.5738  -18.5693 C   0  0  0  0  0  0  0  0  0  0  0  0
    2.4973  -50.3677  -17.6799 C   0  0  0  0  0  0  0  0  0  0  0  0
    3.1563  -51.1984  -16.9741 O   0  0  0  0  0  0  0  0  0  0  0  0
    1.0402  -50.3278  -17.5168 C   0  0  0  0  0  0  0  0  0  0  0  0
    0.5184  -51.2621  -18.5182 N   0  0  0  0  0  0  0  0  0  0  0  0
   -0.2065  -52.2775  -18.8320 C   0  0  0  0  0  0  0  0  0  0  0  0
   -0.9984  -53.0446  -18.1817 O   0  0  0  0  0  0  0  0  0  0  0  0
    1.0267  -50.8193  -19.4981 H   0  0  0  0  0  0  0  0  0  0  0  0
   -0.1658  -52.7570  -20.2833 C   0  0  0  0  0  0  0  0  0  0  0  0
   -0.3417  -54.0532  -20.5538 C   0  0  0  0  0  0  0  0  0  0  0  0
   -0.4512  -54.4464  -21.8800 C   0  0  0  0  0  0  0  0  0  0  0  0
   -0.3765  -53.4816  -22.9045 C   0  0  0  0  0  0  0  0  0  0  0  0
   -0.1888  -52.1531  -22.5679 C   0  0  0  0  0  0  0  0  0  0  0  0
   -0.0771  -51.7669  -21.2202 C   0  0  0  0  0  0  0  0  0  0  0  0
    0.3802  -50.4650  -16.2320 C   0  0  0  0  0  0  0  0  0  0  0  0
   -1.0619  -50.0146  -16.1083 C   0  0  0  0  0  0  0  0  0  0  0  0
   -1.0699  -48.6771  -15.3583 C   0  0  0  0  0  0  0  0  0  0  0  0
   -1.8684  -50.9658  -15.2444 C   0  0  0  0  0  0  0  0  0  0  0  0
    2.7337  -48.3331  -19.1219 C   0  0  0  0  0  0  0  0  0  0  0  0
    2.9248  -47.7020  -20.3662 C   0  0  0  0  0  0  0  0  0  0  0  0
    3.8152  -46.6239  -20.4567 C   0  0  0  0  0  0  0  0  0  0  0  0
    3.9571  -45.9925  -21.6688 C   0  0  0  0  0  0  0  0  0  0  0  0
    3.2567  -46.3917  -22.7715 C   0  0  0  0  0  0  0  0  0  0  0  0
    2.3798  -47.4402  -22.7119 C   0  0  0  0  0  0  0  0  0  0  0  0
    2.2445  -48.0650  -21.4910 C   0  0  0  0  0  0  0  0  0  0  0  0
    5.5498  -50.8325  -21.8852 C   0  0  0  0  0  0  0  0  0  0  0  0
    6.4193  -48.6252  -22.3068 C   0  0  0  0  0  0  0  0  0  0  0  0
    5.8162  -49.8903  -22.9689 C   0  0  0  0  0  0  0  0  0  0  0  0
    6.7434  -50.2534  -24.0533 C   0  0  0  0  0  0  0  0  0  0  0  0
 56 57  1  0  0  0
 57 58  1  0  0  0
 57 55  1  0  0  0
 55  1  1  0  0  0
  1  2  1  0  0  0
  2  3  1  0  0  0
  3  4  2  0  0  0
  3  6  1  0  0  0
  6 19  1  0  0  0
 19 20  1  0  0  0
 20 21  2  0  0  0
 21 22  1  0  0  0
 22 23  2  0  0  0
 23 24  1  0  0  0
 24 25  2  0  0  0
  6  7  1  0  0  0
  7  8  1  0  0  0
  8  9  2  0  0  0
  8 11  1  0  0  0
 11 12  1  0  0  0
 12 13  1  0  0  0
 13 14  2  0  0  0
 14 15  1  0  0  0
 15 16  2  0  0  0
 16 17  1  0  0  0
 17 18  2  0  0  0
  1 26  1  0  0  0
 26 27  2  0  0  0
 26 28  1  0  0  0
 28 30  1  0  0  0
 30 48  1  0  0  0
 48 49  1  0  0  0
 49 50  2  0  0  0
 50 51  1  0  0  0
 51 52  2  0  0  0
 52 53  1  0  0  0
 53 54  2  0  0  0
 30 31  1  0  0  0
 31 32  2  0  0  0
 31 33  1  0  0  0
 33 44  1  0  0  0
 44 45  1  0  0  0
 45 46  1  0  0  0
 45 47  1  0  0  0
 33 34  1  0  0  0
 34 35  1  0  0  0
 35 36  2  0  0  0
 35 38  1  0  0  0
 38 39  2  0  0  0
 39 40  1  0  0  0
 40 41  2  0  0  0
 41 42  1  0  0  0
 42 43  2  0  0  0
 25 20  1  0  0  0
 18 13  1  0  0  0
 54 49  1  0  0  0
 43 38  1  0  0  0
  2  5  1  0  0  0
  7 10  1  0  0  0
 28 29  1  0  0  0
 34 37  1  0  0  0
M  END
> <minimizedAffinity>
-7.79109

> <CNNscore>
0.1916518360

> <CNNaffinity>
7.5719132423

> <CNN_VS>
1.4511710405

> <CNNaffinity_variance>
0.5947092772

$$$$
[H]c1c([H])c([H])c(C(=O)N([H])[C@]([H])(C(=O)[C@@]([H])(N([H])C(=O)[C@@]([H])(N([H])C(=O)[C@@]([H])(N([H])C(=O)OC([H])([H])c2c([H])c([H])c([H])c([H])c2[H])C([H])([H])c2c([H])c([H])c([H])c([H])c2[H])C([H])([H])C([H])(C([H])([H])[H])C([H])([H])[H])C([H])([H])c2c([H])c([H])c([H])c([H])c2[H])C([H])([H])C([H])(C([H])([H])[H])C([H])([H])[H])c([H])c1[H]


 58 61  0  0  0  0  0  0  0  0999 V2000
    5.0046  -50.9817  -22.1727 C   0  0  0  0  0  0  0  0  0  0  0  0
    4.8104  -50.1784  -23.3245 N   0  0  0  0  0  0  0  0  0  0  0  0
    3.9605  -50.6345  -24.3699 C   0  0  0  0  0  0  0  0  0  0  0  0
    3.3203  -51.7382  -24.1289 O   0  0  0  0  0  0  0  0  0  0  0  0
    5.2201  -49.2435  -23.4297 H   0  0  0  0  0  0  0  0  0  0  0  0
    3.6993  -50.0638  -25.6904 C   0  0  0  0  0  0  0  0  0  0  0  0
    3.2339  -51.1437  -26.5125 N   0  0  0  0  0  0  0  0  0  0  0  0
    2.9691  -52.3583  -27.1376 C   0  0  0  0  0  0  0  0  0  0  0  0
    3.4617  -53.4810  -26.9687 O   0  0  0  0  0  0  0  0  0  0  0  0
    4.4274  -51.7783  -26.1320 H   0  0  0  0  0  0  0  0  0  0  0  0
    1.9767  -52.3416  -28.1560 O   0  0  0  0  0  0  0  0  0  0  0  0
    1.1320  -53.4747  -28.3317 C   0  0  0  0  0  0  0  0  0  0  0  0
   -0.2386  -52.9177  -28.0220 C   0  0  0  0  0  0  0  0  0  0  0  0
   -0.5405  -52.5251  -26.7850 C   0  0  0  0  0  0  0  0  0  0  0  0
   -1.8322  -52.1433  -26.4113 C   0  0  0  0  0  0  0  0  0  0  0  0
   -2.8059  -52.1831  -27.4010 C   0  0  0  0  0  0  0  0  0  0  0  0
   -2.5008  -52.5876  -28.6881 C   0  0  0  0  0  0  0  0  0  0  0  0
   -1.2069  -52.9578  -29.0232 C   0  0  0  0  0  0  0  0  0  0  0  0
    2.8493  -48.7965  -25.6992 C   0  0  0  0  0  0  0  0  0  0  0  0
    3.5105  -47.7095  -26.4081 C   0  0  0  0  0  0  0  0  0  0  0  0
    3.0054  -46.5183  -26.8069 C   0  0  0  0  0  0  0  0  0  0  0  0
    3.7398  -45.5645  -27.5530 C   0  0  0  0  0  0  0  0  0  0  0  0
    5.0240  -45.8545  -27.8902 C   0  0  0  0  0  0  0  0  0  0  0  0
    5.5463  -47.0250  -27.5042 C   0  0  0  0  0  0  0  0  0  0  0  0
    4.8503  -47.9681  -26.7746 C   0  0  0  0  0  0  0  0  0  0  0  0
    4.0742  -50.6988  -21.0041 C   0  0  0  0  0  0  0  0  0  0  0  0
    3.6353  -51.6944  -20.4067 O   0  0  0  0  0  0  0  0  0  0  0  0
    3.7870  -49.3895  -20.7242 N   0  0  0  0  0  0  0  0  0  0  0  0
    4.4400  -48.7327  -21.4042 H   0  0  0  0  0  0  0  0  0  0  0  0
    3.0251  -48.5005  -19.8610 C   0  0  0  0  0  0  0  0  0  0  0  0
    1.5961  -48.8783  -19.7697 C   0  0  0  0  0  0  0  0  0  0  0  0
    0.9107  -48.3919  -20.7268 O   0  0  0  0  0  0  0  0  0  0  0  0
    0.9007  -49.6948  -18.7691 C   0  0  0  0  0  0  0  0  0  0  0  0
    0.4597  -50.8909  -19.4922 N   0  0  0  0  0  0  0  0  0  0  0  0
   -0.0630  -52.0663  -19.4986 C   0  0  0  0  0  0  0  0  0  0  0  0
   -0.5689  -52.8237  -18.5992 O   0  0  0  0  0  0  0  0  0  0  0  0
    0.7162  -50.5644  -20.6067 H   0  0  0  0  0  0  0  0  0  0  0  0
   -0.1232  -52.8088  -20.8339 C   0  0  0  0  0  0  0  0  0  0  0  0
   -0.7239  -54.0001  -20.8986 C   0  0  0  0  0  0  0  0  0  0  0  0
   -0.9009  -54.5885  -22.1428 C   0  0  0  0  0  0  0  0  0  0  0  0
   -0.4494  -53.9251  -23.3013 C   0  0  0  0  0  0  0  0  0  0  0  0
    0.1705  -52.6948  -23.1760 C   0  0  0  0  0  0  0  0  0  0  0  0
    0.3460  -52.1094  -21.9094 C   0  0  0  0  0  0  0  0  0  0  0  0
    1.4629  -50.0076  -17.4686 C   0  0  0  0  0  0  0  0  0  0  0  0
    0.7142  -49.5569  -16.2300 C   0  0  0  0  0  0  0  0  0  0  0  0
    1.4161  -50.1699  -15.0122 C   0  0  0  0  0  0  0  0  0  0  0  0
   -0.6978  -50.1111  -16.2025 C   0  0  0  0  0  0  0  0  0  0  0  0
    3.2707  -47.1748  -20.5238 C   0  0  0  0  0  0  0  0  0  0  0  0
    4.3326  -46.7709  -21.3558 C   0  0  0  0  0  0  0  0  0  0  0  0
    5.4990  -46.2557  -20.7746 C   0  0  0  0  0  0  0  0  0  0  0  0
    6.5080  -45.8264  -21.6025 C   0  0  0  0  0  0  0  0  0  0  0  0
    6.3967  -45.8926  -22.9624 C   0  0  0  0  0  0  0  0  0  0  0  0
    5.2692  -46.3897  -23.5570 C   0  0  0  0  0  0  0  0  0  0  0  0
    4.2633  -46.8160  -22.7170 C   0  0  0  0  0  0  0  0  0  0  0  0
    6.4383  -50.8273  -21.7146 C   0  0  0  0  0  0  0  0  0  0  0  0
    7.7566  -49.2052  -20.5158 C   0  0  0  0  0  0  0  0  0  0  0  0
    7.0887  -49.5296  -21.8764 C   0  0  0  0  0  0  0  0  0  0  0  0
    8.1415  -49.3515  -22.8900 C   0  0  0  0  0  0  0  0  0  0  0  0
 56 57  1  0  0  0
 57 58  1  0  0  0
 57 55  1  0  0  0
 55  1  1  0  0  0
  1  2  1  0  0  0
  2  3  1  0  0  0
  3  4  2  0  0  0
  3  6  1  0  0  0
  6 19  1  0  0  0
 19 20  1  0  0  0
 20 21  2  0  0  0
 21 22  1  0  0  0
 22 23  2  0  0  0
 23 24  1  0  0  0
 24 25  2  0  0  0
  6  7  1  0  0  0
  7  8  1  0  0  0
  8  9  2  0  0  0
  8 11  1  0  0  0
 11 12  1  0  0  0
 12 13  1  0  0  0
 13 14  2  0  0  0
 14 15  1  0  0  0
 15 16  2  0  0  0
 16 17  1  0  0  0
 17 18  2  0  0  0
  1 26  1  0  0  0
 26 27  2  0  0  0
 26 28  1  0  0  0
 28 30  1  0  0  0
 30 48  1  0  0  0
 48 49  1  0  0  0
 49 50  2  0  0  0
 50 51  1  0  0  0
 51 52  2  0  0  0
 52 53  1  0  0  0
 53 54  2  0  0  0
 30 31  1  0  0  0
 31 32  2  0  0  0
 31 33  1  0  0  0
 33 44  1  0  0  0
 44 45  1  0  0  0
 45 46  1  0  0  0
 45 47  1  0  0  0
 33 34  1  0  0  0
 34 35  1  0  0  0
 35 36  2  0  0  0
 35 38  1  0  0  0
 38 39  2  0  0  0
 39 40  1  0  0  0
 40 41  2  0  0  0
 41 42  1  0  0  0
 42 43  2  0  0  0
 25 20  1  0  0  0
 18 13  1  0  0  0
 54 49  1  0  0  0
 43 38  1  0  0  0
  2  5  1  0  0  0
  7 10  1  0  0  0
 28 29  1  0  0  0
 34 37  1  0  0  0
M  END
> <minimizedAffinity>
-8.11754

> <CNNscore>
0.1515054405

> <CNNaffinity>
7.4844141006

> <CNN_VS>
1.1339294910

> <CNNaffinity_variance>
0.8442083597

$$$$
[H]c1c([H])c([H])c(C(=O)N([H])[C@]([H])(C(=O)[C@@]([H])(N([H])C(=O)[C@@]([H])(N([H])C(=O)[C@@]([H])(N([H])C(=O)OC([H])([H])c2c([H])c([H])c([H])c([H])c2[H])C([H])([H])c2c([H])c([H])c([H])c([H])c2[H])C([H])([H])C([H])(C([H])([H])[H])C([H])([H])[H])C([H])([H])c2c([H])c([H])c([H])c([H])c2[H])C([H])([H])C([H])(C([H])([H])[H])C([H])([H])[H])c([H])c1[H]


 58 61  0  0  0  0  0  0  0  0999 V2000
    0.3410  -51.7233  -21.4901 C   0  0  0  0  0  0  0  0  0  0  0  0
    1.2236  -51.5541  -22.5866 N   0  0  0  0  0  0  0  0  0  0  0  0
    2.6260  -51.4805  -22.3609 C   0  0  0  0  0  0  0  0  0  0  0  0
    3.0077  -51.6928  -21.1380 O   0  0  0  0  0  0  0  0  0  0  0  0
    0.9052  -51.5281  -23.5617 H   0  0  0  0  0  0  0  0  0  0  0  0
    3.7171  -51.1875  -23.2891 C   0  0  0  0  0  0  0  0  0  0  0  0
    3.3045  -51.6883  -24.5688 N   0  0  0  0  0  0  0  0  0  0  0  0
    3.0135  -51.9089  -25.9114 C   0  0  0  0  0  0  0  0  0  0  0  0
    3.1403  -51.1746  -26.8994 O   0  0  0  0  0  0  0  0  0  0  0  0
    3.2828  -50.3363  -24.9478 H   0  0  0  0  0  0  0  0  0  0  0  0
    2.4662  -53.1800  -26.2386 O   0  0  0  0  0  0  0  0  0  0  0  0
    1.2157  -53.5708  -25.6800 C   0  0  0  0  0  0  0  0  0  0  0  0
    0.2484  -53.2966  -26.8085 C   0  0  0  0  0  0  0  0  0  0  0  0
    0.6321  -53.4517  -28.0751 C   0  0  0  0  0  0  0  0  0  0  0  0
   -0.1692  -53.0720  -29.1557 C   0  0  0  0  0  0  0  0  0  0  0  0
   -1.4082  -52.5226  -28.8514 C   0  0  0  0  0  0  0  0  0  0  0  0
   -1.8151  -52.3596  -27.5395 C   0  0  0  0  0  0  0  0  0  0  0  0
   -0.9937  -52.7500  -26.4924 C   0  0  0  0  0  0  0  0  0  0  0  0
    4.2312  -49.7510  -23.2623 C   0  0  0  0  0  0  0  0  0  0  0  0
    5.5777  -49.6710  -22.7130 C   0  0  0  0  0  0  0  0  0  0  0  0
    6.1295  -50.3780  -21.6989 C   0  0  0  0  0  0  0  0  0  0  0  0
    7.4412  -50.1587  -21.2118 C   0  0  0  0  0  0  0  0  0  0  0  0
    8.1935  -49.1862  -21.7907 C   0  0  0  0  0  0  0  0  0  0  0  0
    7.6704  -48.4761  -22.7976 C   0  0  0  0  0  0  0  0  0  0  0  0
    6.3959  -48.6742  -23.2902 C   0  0  0  0  0  0  0  0  0  0  0  0
    0.4356  -50.6716  -20.3963 C   0  0  0  0  0  0  0  0  0  0  0  0
    0.4408  -49.4905  -20.7783 O   0  0  0  0  0  0  0  0  0  0  0  0
    0.5253  -51.1087  -19.1017 N   0  0  0  0  0  0  0  0  0  0  0  0
    0.3882  -52.2495  -19.1051 H   0  0  0  0  0  0  0  0  0  0  0  0
    0.6641  -50.6906  -17.7154 C   0  0  0  0  0  0  0  0  0  0  0  0
    2.0779  -50.6035  -17.2833 C   0  0  0  0  0  0  0  0  0  0  0  0
    2.8437  -51.3212  -18.0051 O   0  0  0  0  0  0  0  0  0  0  0  0
    2.6809  -49.8407  -16.1852 C   0  0  0  0  0  0  0  0  0  0  0  0
    3.4568  -48.7819  -16.8370 N   0  0  0  0  0  0  0  0  0  0  0  0
    4.1597  -47.7065  -16.7712 C   0  0  0  0  0  0  0  0  0  0  0  0
    4.5884  -46.9771  -15.8106 O   0  0  0  0  0  0  0  0  0  0  0  0
    3.3855  -49.1409  -17.9687 H   0  0  0  0  0  0  0  0  0  0  0  0
    4.6191  -47.0775  -18.0870 C   0  0  0  0  0  0  0  0  0  0  0  0
    5.5798  -46.1496  -18.0733 C   0  0  0  0  0  0  0  0  0  0  0  0
    6.0873  -45.7004  -19.2842 C   0  0  0  0  0  0  0  0  0  0  0  0
    5.5857  -46.2265  -20.4915 C   0  0  0  0  0  0  0  0  0  0  0  0
    4.5869  -47.1827  -20.4476 C   0  0  0  0  0  0  0  0  0  0  0  0
    4.0791  -47.6285  -19.2143 C   0  0  0  0  0  0  0  0  0  0  0  0
    1.9249  -49.3544  -15.0463 C   0  0  0  0  0  0  0  0  0  0  0  0
    2.0848  -50.0637  -13.7163 C   0  0  0  0  0  0  0  0  0  0  0  0
    3.4797  -50.7002  -13.6921 C   0  0  0  0  0  0  0  0  0  0  0  0
    1.1119  -51.2201  -13.5833 C   0  0  0  0  0  0  0  0  0  0  0  0
   -0.1305  -51.7545  -17.0126 C   0  0  0  0  0  0  0  0  0  0  0  0
   -1.4514  -51.7135  -16.5262 C   0  0  0  0  0  0  0  0  0  0  0  0
   -2.3659  -52.6881  -16.9473 C   0  0  0  0  0  0  0  0  0  0  0  0
   -3.6614  -52.6079  -16.4966 C   0  0  0  0  0  0  0  0  0  0  0  0
   -4.0679  -51.6102  -15.6567 C   0  0  0  0  0  0  0  0  0  0  0  0
   -3.1970  -50.6449  -15.2306 C   0  0  0  0  0  0  0  0  0  0  0  0
   -1.9009  -50.7345  -15.6899 C   0  0  0  0  0  0  0  0  0  0  0  0
    0.5797  -53.0900  -20.8868 C   0  0  0  0  0  0  0  0  0  0  0  0
   -1.7215  -53.6585  -20.4540 C   0  0  0  0  0  0  0  0  0  0  0  0
   -0.4078  -54.1404  -21.1206 C   0  0  0  0  0  0  0  0  0  0  0  0
   -0.7737  -54.5185  -22.4956 C   0  0  0  0  0  0  0  0  0  0  0  0
 56 57  1  0  0  0
 57 58  1  0  0  0
 57 55  1  0  0  0
 55  1  1  0  0  0
  1  2  1  0  0  0
  2  3  1  0  0  0
  3  4  2  0  0  0
  3  6  1  0  0  0
  6 19  1  0  0  0
 19 20  1  0  0  0
 20 21  2  0  0  0
 21 22  1  0  0  0
 22 23  2  0  0  0
 23 24  1  0  0  0
 24 25  2  0  0  0
  6  7  1  0  0  0
  7  8  1  0  0  0
  8  9  2  0  0  0
  8 11  1  0  0  0
 11 12  1  0  0  0
 12 13  1  0  0  0
 13 14  2  0  0  0
 14 15  1  0  0  0
 15 16  2  0  0  0
 16 17  1  0  0  0
 17 18  2  0  0  0
  1 26  1  0  0  0
 26 27  2  0  0  0
 26 28  1  0  0  0
 28 30  1  0  0  0
 30 48  1  0  0  0
 48 49  1  0  0  0
 49 50  2  0  0  0
 50 51  1  0  0  0
 51 52  2  0  0  0
 52 53  1  0  0  0
 53 54  2  0  0  0
 30 31  1  0  0  0
 31 32  2  0  0  0
 31 33  1  0  0  0
 33 44  1  0  0  0
 44 45  1  0  0  0
 45 46  1  0  0  0
 45 47  1  0  0  0
 33 34  1  0  0  0
 34 35  1  0  0  0
 35 36  2  0  0  0
 35 38  1  0  0  0
 38 39  2  0  0  0
 39 40  1  0  0  0
 40 41  2  0  0  0
 41 42  1  0  0  0
 42 43  2  0  0  0
 25 20  1  0  0  0
 18 13  1  0  0  0
 54 49  1  0  0  0
 43 38  1  0  0  0
  2  5  1  0  0  0
  7 10  1  0  0  0
 28 29  1  0  0  0
 34 37  1  0  0  0
M  END
> <minimizedAffinity>
-7.87739

> <CNNscore>
0.1410765350

> <CNNaffinity>
6.9762010574

> <CNN_VS>
0.9841782451

> <CNNaffinity_variance>
1.8294851780

$$$$
[H]c1c([H])c([H])c(C(=O)N([H])[C@]([H])(C(=O)[C@@]([H])(N([H])C(=O)[C@@]([H])(N([H])C(=O)[C@@]([H])(N([H])C(=O)OC([H])([H])c2c([H])c([H])c([H])c([H])c2[H])C([H])([H])c2c([H])c([H])c([H])c([H])c2[H])C([H])([H])C([H])(C([H])([H])[H])C([H])([H])[H])C([H])([H])c2c([H])c([H])c([H])c([H])c2[H])C([H])([H])C([H])(C([H])([H])[H])C([H])([H])[H])c([H])c1[H]


 58 61  0  0  0  0  0  0  0  0999 V2000
    0.8187  -52.0638  -21.5757 C   0  0  0  0  0  0  0  0  0  0  0  0
    1.8904  -51.7154  -22.4359 N   0  0  0  0  0  0  0  0  0  0  0  0
    2.0771  -50.3585  -22.8193 C   0  0  0  0  0  0  0  0  0  0  0  0
    1.2912  -49.5009  -22.2422 O   0  0  0  0  0  0  0  0  0  0  0  0
    2.5839  -52.3946  -22.7685 H   0  0  0  0  0  0  0  0  0  0  0  0
    3.0104  -49.7686  -23.7778 C   0  0  0  0  0  0  0  0  0  0  0  0
    2.8785  -50.5263  -24.9891 N   0  0  0  0  0  0  0  0  0  0  0  0
    2.8663  -51.0114  -26.2932 C   0  0  0  0  0  0  0  0  0  0  0  0
    3.1535  -50.4628  -27.3646 O   0  0  0  0  0  0  0  0  0  0  0  0
    2.8748  -49.2726  -25.6218 H   0  0  0  0  0  0  0  0  0  0  0  0
    2.4477  -52.3600  -26.4616 O   0  0  0  0  0  0  0  0  0  0  0  0
    1.4039  -52.8785  -25.6432 C   0  0  0  0  0  0  0  0  0  0  0  0
    0.1685  -52.6094  -26.4714 C   0  0  0  0  0  0  0  0  0  0  0  0
   -0.9515  -52.1835  -25.8886 C   0  0  0  0  0  0  0  0  0  0  0  0
   -2.1600  -52.0616  -26.5804 C   0  0  0  0  0  0  0  0  0  0  0  0
   -2.1454  -52.4018  -27.9271 C   0  0  0  0  0  0  0  0  0  0  0  0
   -0.9868  -52.8430  -28.5404 C   0  0  0  0  0  0  0  0  0  0  0  0
    0.1950  -52.9496  -27.8223 C   0  0  0  0  0  0  0  0  0  0  0  0
    2.9300  -48.2514  -23.9208 C   0  0  0  0  0  0  0  0  0  0  0  0
    4.2377  -47.6267  -23.7756 C   0  0  0  0  0  0  0  0  0  0  0  0
    5.2412  -47.5267  -24.6789 C   0  0  0  0  0  0  0  0  0  0  0  0
    6.5010  -46.9469  -24.3916 C   0  0  0  0  0  0  0  0  0  0  0  0
    6.7212  -46.4614  -23.1416 C   0  0  0  0  0  0  0  0  0  0  0  0
    5.7426  -46.5460  -22.2323 C   0  0  0  0  0  0  0  0  0  0  0  0
    4.5065  -47.1044  -22.4907 C   0  0  0  0  0  0  0  0  0  0  0  0
    1.1138  -51.9862  -20.0864 C   0  0  0  0  0  0  0  0  0  0  0  0
    1.1489  -53.0704  -19.4830 O   0  0  0  0  0  0  0  0  0  0  0  0
    1.2944  -50.7440  -19.5391 N   0  0  0  0  0  0  0  0  0  0  0  0
    1.2966  -49.9787  -20.3961 H   0  0  0  0  0  0  0  0  0  0  0  0
    1.5468  -50.0167  -18.3049 C   0  0  0  0  0  0  0  0  0  0  0  0
    2.9852  -49.7373  -18.0899 C   0  0  0  0  0  0  0  0  0  0  0  0
    3.5165  -50.5624  -17.2779 O   0  0  0  0  0  0  0  0  0  0  0  0
    3.8345  -48.6849  -18.6578 C   0  0  0  0  0  0  0  0  0  0  0  0
    4.6131  -49.3479  -19.7076 N   0  0  0  0  0  0  0  0  0  0  0  0
    4.8440  -50.3697  -20.4543 C   0  0  0  0  0  0  0  0  0  0  0  0
    4.2760  -51.5057  -20.6140 O   0  0  0  0  0  0  0  0  0  0  0  0
    5.3785  -48.4783  -19.9771 H   0  0  0  0  0  0  0  0  0  0  0  0
    6.0577  -50.3106  -21.3823 C   0  0  0  0  0  0  0  0  0  0  0  0
    5.9694  -50.8170  -22.6151 C   0  0  0  0  0  0  0  0  0  0  0  0
    7.0274  -50.6212  -23.4914 C   0  0  0  0  0  0  0  0  0  0  0  0
    8.1615  -49.8992  -23.0690 C   0  0  0  0  0  0  0  0  0  0  0  0
    8.2022  -49.4006  -21.7793 C   0  0  0  0  0  0  0  0  0  0  0  0
    7.1246  -49.6073  -20.8996 C   0  0  0  0  0  0  0  0  0  0  0  0
    3.3254  -47.3923  -19.0762 C   0  0  0  0  0  0  0  0  0  0  0  0
    3.6832  -46.1726  -18.2503 C   0  0  0  0  0  0  0  0  0  0  0  0
    4.1028  -45.0603  -19.2190 C   0  0  0  0  0  0  0  0  0  0  0  0
    4.8991  -46.4287  -17.3799 C   0  0  0  0  0  0  0  0  0  0  0  0
    0.9422  -50.9481  -17.2929 C   0  0  0  0  0  0  0  0  0  0  0  0
   -0.3278  -50.9108  -16.6856 C   0  0  0  0  0  0  0  0  0  0  0  0
   -0.6982  -49.7815  -15.9434 C   0  0  0  0  0  0  0  0  0  0  0  0
   -1.9236  -49.7799  -15.3219 C   0  0  0  0  0  0  0  0  0  0  0  0
   -2.7756  -50.8438  -15.4141 C   0  0  0  0  0  0  0  0  0  0  0  0
   -2.4396  -51.9597  -16.1308 C   0  0  0  0  0  0  0  0  0  0  0  0
   -1.2078  -51.9507  -16.7486 C   0  0  0  0  0  0  0  0  0  0  0  0
    0.3622  -53.4648  -21.9191 C   0  0  0  0  0  0  0  0  0  0  0  0
   -1.1810  -55.0077  -22.9409 C   0  0  0  0  0  0  0  0  0  0  0  0
   -1.0661  -53.7110  -22.0996 C   0  0  0  0  0  0  0  0  0  0  0  0
   -1.9346  -53.9168  -20.9289 C   0  0  0  0  0  0  0  0  0  0  0  0
 56 57  1  0  0  0
 57 58  1  0  0  0
 57 55  1  0  0  0
 55  1  1  0  0  0
  1  2  1  0  0  0
  2  3  1  0  0  0
  3  4  2  0  0  0
  3  6  1  0  0  0
  6 19  1  0  0  0
 19 20  1  0  0  0
 20 21  2  0  0  0
 21 22  1  0  0  0
 22 23  2  0  0  0
 23 24  1  0  0  0
 24 25  2  0  0  0
  6  7  1  0  0  0
  7  8  1  0  0  0
  8  9  2  0  0  0
  8 11  1  0  0  0
 11 12  1  0  0  0
 12 13  1  0  0  0
 13 14  2  0  0  0
 14 15  1  0  0  0
 15 16  2  0  0  0
 16 17  1  0  0  0
 17 18  2  0  0  0
  1 26  1  0  0  0
 26 27  2  0  0  0
 26 28  1  0  0  0
 28 30  1  0  0  0
 30 48  1  0  0  0
 48 49  1  0  0  0
 49 50  2  0  0  0
 50 51  1  0  0  0
 51 52  2  0  0  0
 52 53  1  0  0  0
 53 54  2  0  0  0
 30 31  1  0  0  0
 31 32  2  0  0  0
 31 33  1  0  0  0
 33 44  1  0  0  0
 44 45  1  0  0  0
 45 46  1  0  0  0
 45 47  1  0  0  0
 33 34  1  0  0  0
 34 35  1  0  0  0
 35 36  2  0  0  0
 35 38  1  0  0  0
 38 39  2  0  0  0
 39 40  1  0  0  0
 40 41  2  0  0  0
 41 42  1  0  0  0
 42 43  2  0  0  0
 25 20  1  0  0  0
 18 13  1  0  0  0
 54 49  1  0  0  0
 43 38  1  0  0  0
  2  5  1  0  0  0
  7 10  1  0  0  0
 28 29  1  0  0  0
 34 37  1  0  0  0
M  END
> <minimizedAffinity>
-7.69108

> <CNNscore>
0.1349570751

> <CNNaffinity>
7.2708816528

> <CNN_VS>
0.9812569022

> <CNNaffinity_variance>
1.0705183744

$$$$
[H]c1c([H])c([H])c(C(=O)N([H])[C@]([H])(C(=O)[C@@]([H])(N([H])C(=O)[C@@]([H])(N([H])C(=O)[C@@]([H])(N([H])C(=O)OC([H])([H])c2c([H])c([H])c([H])c([H])c2[H])C([H])([H])c2c([H])c([H])c([H])c([H])c2[H])C([H])([H])C([H])(C([H])([H])[H])C([H])([H])[H])C([H])([H])c2c([H])c([H])c([H])c([H])c2[H])C([H])([H])C([H])(C([H])([H])[H])C([H])([H])[H])c([H])c1[H]


 58 61  0  0  0  0  0  0  0  0999 V2000
    0.9302  -51.7005  -21.1951 C   0  0  0  0  0  0  0  0  0  0  0  0
    1.1473  -50.6627  -20.2540 N   0  0  0  0  0  0  0  0  0  0  0  0
    2.2584  -50.7317  -19.3687 C   0  0  0  0  0  0  0  0  0  0  0  0
    3.0771  -51.7183  -19.5744 O   0  0  0  0  0  0  0  0  0  0  0  0
    0.5621  -49.8212  -20.2047 H   0  0  0  0  0  0  0  0  0  0  0  0
    2.6240  -49.8713  -18.2444 C   0  0  0  0  0  0  0  0  0  0  0  0
    1.9735  -50.4184  -17.0886 N   0  0  0  0  0  0  0  0  0  0  0  0
    1.6257  -50.9674  -15.8582 C   0  0  0  0  0  0  0  0  0  0  0  0
    2.3286  -51.3671  -14.9214 O   0  0  0  0  0  0  0  0  0  0  0  0
    3.2239  -50.9970  -16.8169 H   0  0  0  0  0  0  0  0  0  0  0  0
    0.2347  -51.1193  -15.6047 O   0  0  0  0  0  0  0  0  0  0  0  0
   -0.5460  -51.9562  -16.4523 C   0  0  0  0  0  0  0  0  0  0  0  0
   -1.9603  -51.6219  -16.0367 C   0  0  0  0  0  0  0  0  0  0  0  0
   -2.9801  -52.3641  -16.4665 C   0  0  0  0  0  0  0  0  0  0  0  0
   -4.3139  -52.0150  -16.2362 C   0  0  0  0  0  0  0  0  0  0  0  0
   -4.5387  -50.8451  -15.5218 C   0  0  0  0  0  0  0  0  0  0  0  0
   -3.4859  -50.0698  -15.0705 C   0  0  0  0  0  0  0  0  0  0  0  0
   -2.1745  -50.4487  -15.3162 C   0  0  0  0  0  0  0  0  0  0  0  0
    4.1149  -49.5785  -18.1022 C   0  0  0  0  0  0  0  0  0  0  0  0
    4.5585  -48.5686  -19.0533 C   0  0  0  0  0  0  0  0  0  0  0  0
    4.0009  -48.2015  -20.2311 C   0  0  0  0  0  0  0  0  0  0  0  0
    4.5702  -47.2425  -21.1041 C   0  0  0  0  0  0  0  0  0  0  0  0
    5.7413  -46.6537  -20.7451 C   0  0  0  0  0  0  0  0  0  0  0  0
    6.3099  -46.9982  -19.5833 C   0  0  0  0  0  0  0  0  0  0  0  0
    5.7718  -47.9280  -18.7160 C   0  0  0  0  0  0  0  0  0  0  0  0
    1.1938  -51.3413  -22.6486 C   0  0  0  0  0  0  0  0  0  0  0  0
    1.3340  -50.1321  -22.8918 O   0  0  0  0  0  0  0  0  0  0  0  0
    1.2349  -52.3645  -23.5578 N   0  0  0  0  0  0  0  0  0  0  0  0
    1.1691  -53.3539  -22.9774 H   0  0  0  0  0  0  0  0  0  0  0  0
    1.3915  -52.6947  -24.9657 C   0  0  0  0  0  0  0  0  0  0  0  0
    2.6359  -52.1416  -25.5477 C   0  0  0  0  0  0  0  0  0  0  0  0
    3.3658  -53.0481  -26.0654 O   0  0  0  0  0  0  0  0  0  0  0  0
    3.1160  -50.7566  -25.5995 C   0  0  0  0  0  0  0  0  0  0  0  0
    4.1460  -50.6707  -24.5604 N   0  0  0  0  0  0  0  0  0  0  0  0
    4.6750  -51.1014  -23.4698 C   0  0  0  0  0  0  0  0  0  0  0  0
    4.4293  -52.0820  -22.6845 O   0  0  0  0  0  0  0  0  0  0  0  0
    4.7844  -49.7580  -24.9777 H   0  0  0  0  0  0  0  0  0  0  0  0
    5.8602  -50.3216  -22.8997 C   0  0  0  0  0  0  0  0  0  0  0  0
    6.3754  -50.6761  -21.7194 C   0  0  0  0  0  0  0  0  0  0  0  0
    7.5401  -50.0562  -21.2895 C   0  0  0  0  0  0  0  0  0  0  0  0
    8.1507  -49.0763  -22.0975 C   0  0  0  0  0  0  0  0  0  0  0  0
    7.5716  -48.7442  -23.3092 C   0  0  0  0  0  0  0  0  0  0  0  0
    6.3899  -49.3779  -23.7333 C   0  0  0  0  0  0  0  0  0  0  0  0
    3.5122  -50.0983  -26.8302 C   0  0  0  0  0  0  0  0  0  0  0  0
    4.2146  -48.7581  -26.7394 C   0  0  0  0  0  0  0  0  0  0  0  0
    3.1624  -47.7040  -26.3743 C   0  0  0  0  0  0  0  0  0  0  0  0
    4.7657  -48.3278  -28.0858 C   0  0  0  0  0  0  0  0  0  0  0  0
    0.1311  -52.1128  -25.5401 C   0  0  0  0  0  0  0  0  0  0  0  0
   -0.4832  -52.3550  -26.7839 C   0  0  0  0  0  0  0  0  0  0  0  0
    0.3181  -52.6180  -27.9029 C   0  0  0  0  0  0  0  0  0  0  0  0
   -0.2960  -52.8094  -29.1170 C   0  0  0  0  0  0  0  0  0  0  0  0
   -1.6542  -52.7499  -29.2508 C   0  0  0  0  0  0  0  0  0  0  0  0
   -2.4608  -52.4936  -28.1759 C   0  0  0  0  0  0  0  0  0  0  0  0
   -1.8340  -52.3019  -26.9637 C   0  0  0  0  0  0  0  0  0  0  0  0
   -0.4955  -52.1870  -21.0545 C   0  0  0  0  0  0  0  0  0  0  0  0
   -1.2867  -54.3317  -21.8161 C   0  0  0  0  0  0  0  0  0  0  0  0
   -0.7264  -53.5548  -20.5975 C   0  0  0  0  0  0  0  0  0  0  0  0
    0.3939  -54.3637  -20.0896 C   0  0  0  0  0  0  0  0  0  0  0  0
 56 57  1  0  0  0
 57 58  1  0  0  0
 57 55  1  0  0  0
 55  1  1  0  0  0
  1  2  1  0  0  0
  2  3  1  0  0  0
  3  4  2  0  0  0
  3  6  1  0  0  0
  6 19  1  0  0  0
 19 20  1  0  0  0
 20 21  2  0  0  0
 21 22  1  0  0  0
 22 23  2  0  0  0
 23 24  1  0  0  0
 24 25  2  0  0  0
  6  7  1  0  0  0
  7  8  1  0  0  0
  8  9  2  0  0  0
  8 11  1  0  0  0
 11 12  1  0  0  0
 12 13  1  0  0  0
 13 14  2  0  0  0
 14 15  1  0  0  0
 15 16  2  0  0  0
 16 17  1  0  0  0
 17 18  2  0  0  0
  1 26  1  0  0  0
 26 27  2  0  0  0
 26 28  1  0  0  0
 28 30  1  0  0  0
 30 48  1  0  0  0
 48 49  1  0  0  0
 49 50  2  0  0  0
 50 51  1  0  0  0
 51 52  2  0  0  0
 52 53  1  0  0  0
 53 54  2  0  0  0
 30 31  1  0  0  0
 31 32  2  0  0  0
 31 33  1  0  0  0
 33 44  1  0  0  0
 44 45  1  0  0  0
 45 46  1  0  0  0
 45 47  1  0  0  0
 33 34  1  0  0  0
 34 35  1  0  0  0
 35 36  2  0  0  0
 35 38  1  0  0  0
 38 39  2  0  0  0
 39 40  1  0  0  0
 40 41  2  0  0  0
 41 42  1  0  0  0
 42 43  2  0  0  0
 25 20  1  0  0  0
 18 13  1  0  0  0
 54 49  1  0  0  0
 43 38  1  0  0  0
  2  5  1  0  0  0
  7 10  1  0  0  0
 28 29  1  0  0  0
 34 37  1  0  0  0
M  END
> <minimizedAffinity>
-8.28396

> <CNNscore>
0.1319658309

> <CNNaffinity>
7.0381407738

> <CNN_VS>
0.9287940860

> <CNNaffinity_variance>
1.4319622517

$$$$
[H]c1c([H])c(S(=O)(=O)N([H])[H])c([H])c([H])c1-c1nc2c(c([H])nn2-c2c([H])c([H])c(C([H])([H])[H])c([H])c2[H])c(=O)n1[H]


 30 33  0  0  0  0  0  0  0  0999 V2000
   -0.3077  -52.7653  -20.1657 C   0  0  0  0  0  0  0  0  0  0  0  0
   -1.2077  -53.6930  -20.5257 N   0  0  0  0  0  0  0  0  0  0  0  0
   -1.2992  -54.2041  -21.7864 C   0  0  0  0  0  0  0  0  0  0  0  0
   -2.1512  -55.0702  -22.0918 O   0  0  0  0  0  0  0  0  0  0  0  0
   -0.4386  -53.7642  -22.7551 C   0  0  0  0  0  0  0  0  0  0  0  0
    0.4829  -52.8114  -22.3774 C   0  0  0  0  0  0  0  0  0  0  0  0
    0.5535  -52.3244  -21.1331 N   0  0  0  0  0  0  0  0  0  0  0  0
    1.2544  -52.4877  -23.4530 N   0  0  0  0  0  0  0  0  0  0  0  0
    0.8122  -53.2234  -24.4520 N   0  0  0  0  0  0  0  0  0  0  0  0
   -0.2080  -54.0103  -24.0830 C   0  0  0  0  0  0  0  0  0  0  0  0
   -1.8815  -54.0635  -19.8442 H   0  0  0  0  0  0  0  0  0  0  0  0
    2.3207  -51.5343  -23.4542 C   0  0  0  0  0  0  0  0  0  0  0  0
    2.1028  -50.1716  -23.4322 C   0  0  0  0  0  0  0  0  0  0  0  0
    3.1508  -49.2740  -23.4340 C   0  0  0  0  0  0  0  0  0  0  0  0
    4.4659  -49.6838  -23.4578 C   0  0  0  0  0  0  0  0  0  0  0  0
    5.5939  -48.6996  -23.4594 C   0  0  0  0  0  0  0  0  0  0  0  0
    4.6877  -51.0432  -23.4799 C   0  0  0  0  0  0  0  0  0  0  0  0
    3.6393  -51.9413  -23.4781 C   0  0  0  0  0  0  0  0  0  0  0  0
   -0.0058  -51.1528  -16.2468 C   0  0  0  0  0  0  0  0  0  0  0  0
   -0.8869  -52.1732  -16.4940 C   0  0  0  0  0  0  0  0  0  0  0  0
   -0.9849  -52.7042  -17.7888 C   0  0  0  0  0  0  0  0  0  0  0  0
   -0.2194  -52.2260  -18.8143 C   0  0  0  0  0  0  0  0  0  0  0  0
    0.6562  -51.2041  -18.5447 C   0  0  0  0  0  0  0  0  0  0  0  0
    0.7727  -50.6578  -17.2630 C   0  0  0  0  0  0  0  0  0  0  0  0
    0.1122  -50.4949  -14.6314 S   0  0  0  0  0  0  0  0  0  0  0  0
   -1.2653  -50.4348  -13.9868 O   0  0  0  0  0  0  0  0  0  0  0  0
    0.6885  -49.0979  -14.6568 O   0  0  0  0  0  0  0  0  0  0  0  0
    1.1257  -51.4722  -13.6511 N   0  0  0  0  0  0  0  0  0  0  0  0
    0.5615  -52.1190  -13.0557 H   0  0  0  0  0  0  0  0  0  0  0  0
    1.8089  -51.9871  -14.2242 H   0  0  0  0  0  0  0  0  0  0  0  0
 19 25  1  0  0  0
 25 26  2  0  0  0
 25 27  2  0  0  0
 25 28  1  0  0  0
 19 20  2  0  0  0
 20 21  1  0  0  0
 21 22  2  0  0  0
 22  1  1  0  0  0
  1  2  1  0  0  0
  2  3  1  0  0  0
  3  4  2  0  0  0
  3  5  1  0  0  0
  5  6  2  0  0  0
  6  7  1  0  0  0
  6  8  1  0  0  0
  8 12  1  0  0  0
 12 13  2  0  0  0
 13 14  1  0  0  0
 14 15  2  0  0  0
 15 16  1  0  0  0
 15 17  1  0  0  0
 17 18  2  0  0  0
  8  9  1  0  0  0
  9 10  2  0  0  0
 22 23  1  0  0  0
 23 24  2  0  0  0
 24 19  1  0  0  0
  7  1  2  0  0  0
 18 12  1  0  0  0
 10  5  1  0  0  0
 28 29  1  0  0  0
 28 30  1  0  0  0
  2 11  1  0  0  0
M  END
> <minimizedAffinity>
-7.67588

> <CNNscore>
0.7202137113

> <CNNaffinity>
6.5561547279

> <CNN_VS>
4.7218327522

> <CNNaffinity_variance>
0.2268779278

$$$$
[H]c1c([H])c(S(=O)(=O)N([H])[H])c([H])c([H])c1-c1nc2c(c([H])nn2-c2c([H])c([H])c(C([H])([H])[H])c([H])c2[H])c(=O)n1[H]


 30 33  0  0  0  0  0  0  0  0999 V2000
   -0.1480  -52.5597  -20.7418 C   0  0  0  0  0  0  0  0  0  0  0  0
   -1.0856  -53.5106  -20.8722 N   0  0  0  0  0  0  0  0  0  0  0  0
   -1.2931  -54.2106  -22.0236 C   0  0  0  0  0  0  0  0  0  0  0  0
   -2.1775  -55.0932  -22.1140 O   0  0  0  0  0  0  0  0  0  0  0  0
   -0.5170  -53.9487  -23.1197 C   0  0  0  0  0  0  0  0  0  0  0  0
    0.4438  -52.9707  -22.9778 C   0  0  0  0  0  0  0  0  0  0  0  0
    0.6288  -52.2965  -21.8369 N   0  0  0  0  0  0  0  0  0  0  0  0
    1.1204  -52.8382  -24.1531 N   0  0  0  0  0  0  0  0  0  0  0  0
    0.5844  -53.7106  -24.9815 N   0  0  0  0  0  0  0  0  0  0  0  0
   -0.4071  -54.4053  -24.4067 C   0  0  0  0  0  0  0  0  0  0  0  0
   -1.7003  -53.7534  -20.0854 H   0  0  0  0  0  0  0  0  0  0  0  0
    2.1920  -51.9225  -24.3965 C   0  0  0  0  0  0  0  0  0  0  0  0
    1.9826  -50.6202  -24.8030 C   0  0  0  0  0  0  0  0  0  0  0  0
    3.0355  -49.7580  -25.0307 C   0  0  0  0  0  0  0  0  0  0  0  0
    4.3474  -50.1449  -24.8664 C   0  0  0  0  0  0  0  0  0  0  0  0
    5.4809  -49.1996  -25.1167 C   0  0  0  0  0  0  0  0  0  0  0  0
    4.5609  -51.4440  -24.4607 C   0  0  0  0  0  0  0  0  0  0  0  0
    3.5076  -52.3067  -24.2329 C   0  0  0  0  0  0  0  0  0  0  0  0
    0.4392  -50.4408  -17.1066 C   0  0  0  0  0  0  0  0  0  0  0  0
    0.9576  -49.9420  -18.2733 C   0  0  0  0  0  0  0  0  0  0  0  0
    0.7625  -50.6434  -19.4726 C   0  0  0  0  0  0  0  0  0  0  0  0
    0.0647  -51.8174  -19.5053 C   0  0  0  0  0  0  0  0  0  0  0  0
   -0.4457  -52.2988  -18.3258 C   0  0  0  0  0  0  0  0  0  0  0  0
   -0.2651  -51.6188  -17.1175 C   0  0  0  0  0  0  0  0  0  0  0  0
    0.6853  -49.5627  -15.6151 S   0  0  0  0  0  0  0  0  0  0  0  0
    2.1131  -49.7529  -15.1232 O   0  0  0  0  0  0  0  0  0  0  0  0
   -0.2587  -50.0482  -14.5392 O   0  0  0  0  0  0  0  0  0  0  0  0
    0.4123  -47.8850  -15.8469 N   0  0  0  0  0  0  0  0  0  0  0  0
    1.3129  -47.3732  -15.9818 H   0  0  0  0  0  0  0  0  0  0  0  0
   -0.2354  -47.7208  -16.6303 H   0  0  0  0  0  0  0  0  0  0  0  0
 19 25  1  0  0  0
 25 26  2  0  0  0
 25 27  2  0  0  0
 25 28  1  0  0  0
 19 20  2  0  0  0
 20 21  1  0  0  0
 21 22  2  0  0  0
 22  1  1  0  0  0
  1  2  1  0  0  0
  2  3  1  0  0  0
  3  4  2  0  0  0
  3  5  1  0  0  0
  5  6  2  0  0  0
  6  7  1  0  0  0
  6  8  1  0  0  0
  8 12  1  0  0  0
 12 13  2  0  0  0
 13 14  1  0  0  0
 14 15  2  0  0  0
 15 16  1  0  0  0
 15 17  1  0  0  0
 17 18  2  0  0  0
  8  9  1  0  0  0
  9 10  2  0  0  0
 22 23  1  0  0  0
 23 24  2  0  0  0
 24 19  1  0  0  0
  7  1  2  0  0  0
 18 12  1  0  0  0
 10  5  1  0  0  0
 28 29  1  0  0  0
 28 30  1  0  0  0
  2 11  1  0  0  0
M  END
> <minimizedAffinity>
-7.84855

> <CNNscore>
0.7072121501

> <CNNaffinity>
6.6493706703

> <CNN_VS>
4.7025156021

> <CNNaffinity_variance>
0.3136676252

$$$$
[H]c1c([H])c(S(=O)(=O)N([H])[H])c([H])c([H])c1-c1nc2c(c([H])nn2-c2c([H])c([H])c(C([H])([H])[H])c([H])c2[H])c(=O)n1[H]


 30 33  0  0  0  0  0  0  0  0999 V2000
    0.2003  -52.9504  -22.4149 C   0  0  0  0  0  0  0  0  0  0  0  0
   -0.7992  -53.7018  -21.9283 N   0  0  0  0  0  0  0  0  0  0  0  0
   -1.2011  -53.6684  -20.6259 C   0  0  0  0  0  0  0  0  0  0  0  0
   -2.1385  -54.3829  -20.2016 O   0  0  0  0  0  0  0  0  0  0  0  0
   -0.5675  -52.8323  -19.7473 C   0  0  0  0  0  0  0  0  0  0  0  0
    0.4580  -52.0639  -20.2548 C   0  0  0  0  0  0  0  0  0  0  0  0
    0.8348  -52.1140  -21.5376 N   0  0  0  0  0  0  0  0  0  0  0  0
    0.9749  -51.2958  -19.2549 N   0  0  0  0  0  0  0  0  0  0  0  0
    0.2822  -51.5913  -18.1744 N   0  0  0  0  0  0  0  0  0  0  0  0
   -0.6601  -52.5126  -18.4183 C   0  0  0  0  0  0  0  0  0  0  0  0
   -1.3140  -54.3495  -22.5376 H   0  0  0  0  0  0  0  0  0  0  0  0
    2.0541  -50.3673  -19.3935 C   0  0  0  0  0  0  0  0  0  0  0  0
    3.3791  -50.7497  -19.3363 C   0  0  0  0  0  0  0  0  0  0  0  0
    4.4007  -49.8323  -19.4732 C   0  0  0  0  0  0  0  0  0  0  0  0
    4.1583  -48.4910  -19.6734 C   0  0  0  0  0  0  0  0  0  0  0  0
    5.2757  -47.5058  -19.8206 C   0  0  0  0  0  0  0  0  0  0  0  0
    2.8371  -48.1051  -19.7312 C   0  0  0  0  0  0  0  0  0  0  0  0
    1.8150  -49.0229  -19.5943 C   0  0  0  0  0  0  0  0  0  0  0  0
    1.3673  -53.0902  -26.4974 C   0  0  0  0  0  0  0  0  0  0  0  0
    2.3122  -52.8687  -25.5296 C   0  0  0  0  0  0  0  0  0  0  0  0
    1.9245  -52.8230  -24.1820 C   0  0  0  0  0  0  0  0  0  0  0  0
    0.6213  -52.9947  -23.8098 C   0  0  0  0  0  0  0  0  0  0  0  0
   -0.3083  -53.2153  -24.7951 C   0  0  0  0  0  0  0  0  0  0  0  0
    0.0525  -53.2654  -26.1450 C   0  0  0  0  0  0  0  0  0  0  0  0
    1.8559  -53.1463  -28.1751 S   0  0  0  0  0  0  0  0  0  0  0  0
    0.7214  -52.6660  -29.0688 O   0  0  0  0  0  0  0  0  0  0  0  0
    2.2230  -54.5540  -28.5851 O   0  0  0  0  0  0  0  0  0  0  0  0
    3.2190  -52.1399  -28.4438 N   0  0  0  0  0  0  0  0  0  0  0  0
    2.9317  -51.2163  -28.8383 H   0  0  0  0  0  0  0  0  0  0  0  0
    3.7701  -52.0263  -27.5815 H   0  0  0  0  0  0  0  0  0  0  0  0
 19 25  1  0  0  0
 25 26  2  0  0  0
 25 27  2  0  0  0
 25 28  1  0  0  0
 19 20  2  0  0  0
 20 21  1  0  0  0
 21 22  2  0  0  0
 22  1  1  0  0  0
  1  2  1  0  0  0
  2  3  1  0  0  0
  3  4  2  0  0  0
  3  5  1  0  0  0
  5  6  2  0  0  0
  6  7  1  0  0  0
  6  8  1  0  0  0
  8 12  1  0  0  0
 12 13  2  0  0  0
 13 14  1  0  0  0
 14 15  2  0  0  0
 15 16  1  0  0  0
 15 17  1  0  0  0
 17 18  2  0  0  0
  8  9  1  0  0  0
  9 10  2  0  0  0
 22 23  1  0  0  0
 23 24  2  0  0  0
 24 19  1  0  0  0
  7  1  2  0  0  0
 18 12  1  0  0  0
 10  5  1  0  0  0
 28 29  1  0  0  0
 28 30  1  0  0  0
  2 11  1  0  0  0
M  END
> <minimizedAffinity>
-8.87473

> <CNNscore>
0.7072107196

> <CNNaffinity>
6.8300528526

> <CNN_VS>
4.8302865028

> <CNNaffinity_variance>
0.2687257230

$$$$
[H]c1c([H])c(S(=O)(=O)N([H])[H])c([H])c([H])c1-c1nc2c(c([H])nn2-c2c([H])c([H])c(C([H])([H])[H])c([H])c2[H])c(=O)n1[H]


 30 33  0  0  0  0  0  0  0  0999 V2000
   -0.0179  -52.3703  -20.9476 C   0  0  0  0  0  0  0  0  0  0  0  0
   -0.9098  -53.3723  -20.9779 N   0  0  0  0  0  0  0  0  0  0  0  0
   -1.1418  -54.1407  -22.0800 C   0  0  0  0  0  0  0  0  0  0  0  0
   -1.9820  -55.0699  -22.0769 O   0  0  0  0  0  0  0  0  0  0  0  0
   -0.4407  -53.8976  -23.2297 C   0  0  0  0  0  0  0  0  0  0  0  0
    0.4734  -52.8668  -23.1905 C   0  0  0  0  0  0  0  0  0  0  0  0
    0.6838  -52.1259  -22.0963 N   0  0  0  0  0  0  0  0  0  0  0  0
    1.0779  -52.7619  -24.4072 N   0  0  0  0  0  0  0  0  0  0  0  0
    0.5448  -53.7019  -25.1602 N   0  0  0  0  0  0  0  0  0  0  0  0
   -0.3763  -54.4144  -24.4969 C   0  0  0  0  0  0  0  0  0  0  0  0
   -1.4676  -53.6043  -20.1468 H   0  0  0  0  0  0  0  0  0  0  0  0
    2.0851  -51.8078  -24.7553 C   0  0  0  0  0  0  0  0  0  0  0  0
    3.3968  -51.9233  -24.3417 C   0  0  0  0  0  0  0  0  0  0  0  0
    4.3483  -50.9876  -24.6925 C   0  0  0  0  0  0  0  0  0  0  0  0
    4.0456  -49.8916  -25.4703 C   0  0  0  0  0  0  0  0  0  0  0  0
    5.0872  -48.8835  -25.8440 C   0  0  0  0  0  0  0  0  0  0  0  0
    2.7373  -49.7725  -25.8853 C   0  0  0  0  0  0  0  0  0  0  0  0
    1.7853  -50.7086  -25.5345 C   0  0  0  0  0  0  0  0  0  0  0  0
    0.6516  -50.0388  -17.4597 C   0  0  0  0  0  0  0  0  0  0  0  0
    1.0799  -49.5763  -18.6768 C   0  0  0  0  0  0  0  0  0  0  0  0
    0.8577  -50.3479  -19.8273 C   0  0  0  0  0  0  0  0  0  0  0  0
    0.2216  -51.5552  -19.7630 C   0  0  0  0  0  0  0  0  0  0  0  0
   -0.1990  -51.9992  -18.5344 C   0  0  0  0  0  0  0  0  0  0  0  0
    0.0103  -51.2492  -17.3731 C   0  0  0  0  0  0  0  0  0  0  0  0
    0.9310  -49.0733  -16.0294 S   0  0  0  0  0  0  0  0  0  0  0  0
    2.2036  -48.2538  -16.1893 O   0  0  0  0  0  0  0  0  0  0  0  0
    1.0775  -49.9483  -14.8058 O   0  0  0  0  0  0  0  0  0  0  0  0
   -0.3761  -47.9951  -15.7606 N   0  0  0  0  0  0  0  0  0  0  0  0
   -0.1548  -47.0398  -16.1203 H   0  0  0  0  0  0  0  0  0  0  0  0
   -1.2467  -48.3602  -16.1716 H   0  0  0  0  0  0  0  0  0  0  0  0
 19 25  1  0  0  0
 25 26  2  0  0  0
 25 27  2  0  0  0
 25 28  1  0  0  0
 19 20  2  0  0  0
 20 21  1  0  0  0
 21 22  2  0  0  0
 22  1  1  0  0  0
  1  2  1  0  0  0
  2  3  1  0  0  0
  3  4  2  0  0  0
  3  5  1  0  0  0
  5  6  2  0  0  0
  6  7  1  0  0  0
  6  8  1  0  0  0
  8 12  1  0  0  0
 12 13  2  0  0  0
 13 14  1  0  0  0
 14 15  2  0  0  0
 15 16  1  0  0  0
 15 17  1  0  0  0
 17 18  2  0  0  0
  8  9  1  0  0  0
  9 10  2  0  0  0
 22 23  1  0  0  0
 23 24  2  0  0  0
 24 19  1  0  0  0
  7  1  2  0  0  0
 18 12  1  0  0  0
 10  5  1  0  0  0
 28 29  1  0  0  0
 28 30  1  0  0  0
  2 11  1  0  0  0
M  END
> <minimizedAffinity>
-7.92161

> <CNNscore>
0.6521940827

> <CNNaffinity>
6.6597800255

> <CNN_VS>
4.3434691429

> <CNNaffinity_variance>
0.4713205695

$$$$
[H]c1c([H])c(S(=O)(=O)N([H])[H])c([H])c([H])c1-c1nc2c(c([H])nn2-c2c([H])c([H])c(C([H])([H])[H])c([H])c2[H])c(=O)n1[H]


 30 33  0  0  0  0  0  0  0  0999 V2000
    0.3132  -52.3883  -20.1482 C   0  0  0  0  0  0  0  0  0  0  0  0
   -0.7377  -53.2211  -20.1945 N   0  0  0  0  0  0  0  0  0  0  0  0
   -1.1577  -53.8408  -21.3340 C   0  0  0  0  0  0  0  0  0  0  0  0
   -2.1435  -54.6137  -21.3450 O   0  0  0  0  0  0  0  0  0  0  0  0
   -0.4887  -53.6185  -22.5068 C   0  0  0  0  0  0  0  0  0  0  0  0
    0.5896  -52.7619  -22.4509 C   0  0  0  0  0  0  0  0  0  0  0  0
    0.9832  -52.1648  -21.3200 N   0  0  0  0  0  0  0  0  0  0  0  0
    1.1363  -52.6533  -23.6944 N   0  0  0  0  0  0  0  0  0  0  0  0
    0.4096  -53.4218  -24.4793 N   0  0  0  0  0  0  0  0  0  0  0  0
   -0.5829  -54.0261  -23.8114 C   0  0  0  0  0  0  0  0  0  0  0  0
   -1.2812  -53.4287  -19.3475 H   0  0  0  0  0  0  0  0  0  0  0  0
    2.2719  -51.8536  -24.0361 C   0  0  0  0  0  0  0  0  0  0  0  0
    2.1758  -50.5083  -24.3296 C   0  0  0  0  0  0  0  0  0  0  0  0
    3.2886  -49.7606  -24.6562 C   0  0  0  0  0  0  0  0  0  0  0  0
    4.5508  -50.3102  -24.7078 C   0  0  0  0  0  0  0  0  0  0  0  0
    5.7500  -49.4878  -25.0635 C   0  0  0  0  0  0  0  0  0  0  0  0
    4.6511  -51.6527  -24.4155 C   0  0  0  0  0  0  0  0  0  0  0  0
    3.5380  -52.4009  -24.0887 C   0  0  0  0  0  0  0  0  0  0  0  0
    1.6526  -50.4649  -16.6048 C   0  0  0  0  0  0  0  0  0  0  0  0
    0.3630  -50.9226  -16.6816 C   0  0  0  0  0  0  0  0  0  0  0  0
   -0.0772  -51.5575  -17.8526 C   0  0  0  0  0  0  0  0  0  0  0  0
    0.7531  -51.7311  -18.9235 C   0  0  0  0  0  0  0  0  0  0  0  0
    2.0403  -51.2652  -18.8253 C   0  0  0  0  0  0  0  0  0  0  0  0
    2.5032  -50.6292  -17.6694 C   0  0  0  0  0  0  0  0  0  0  0  0
    2.1959  -49.6745  -15.1431 S   0  0  0  0  0  0  0  0  0  0  0  0
    1.5612  -50.3299  -13.9247 O   0  0  0  0  0  0  0  0  0  0  0  0
    1.8199  -48.2106  -15.1476 O   0  0  0  0  0  0  0  0  0  0  0  0
    3.9010  -49.7868  -14.9907 N   0  0  0  0  0  0  0  0  0  0  0  0
    4.1699  -50.5654  -14.3483 H   0  0  0  0  0  0  0  0  0  0  0  0
    4.3484  -49.8872  -15.9125 H   0  0  0  0  0  0  0  0  0  0  0  0
 19 25  1  0  0  0
 25 26  2  0  0  0
 25 27  2  0  0  0
 25 28  1  0  0  0
 19 20  2  0  0  0
 20 21  1  0  0  0
 21 22  2  0  0  0
 22  1  1  0  0  0
  1  2  1  0  0  0
  2  3  1  0  0  0
  3  4  2  0  0  0
  3  5  1  0  0  0
  5  6  2  0  0  0
  6  7  1  0  0  0
  6  8  1  0  0  0
  8 12  1  0  0  0
 12 13  2  0  0  0
 13 14  1  0  0  0
 14 15  2  0  0  0
 15 16  1  0  0  0
 15 17  1  0  0  0
 17 18  2  0  0  0
  8  9  1  0  0  0
  9 10  2  0  0  0
 22 23  1  0  0  0
 23 24  2  0  0  0
 24 19  1  0  0  0
  7  1  2  0  0  0
 18 12  1  0  0  0
 10  5  1  0  0  0
 28 29  1  0  0  0
 28 30  1  0  0  0
  2 11  1  0  0  0
M  END
> <minimizedAffinity>
-7.71171

> <CNNscore>
0.6304047704

> <CNNaffinity>
6.4934968948

> <CNN_VS>
4.0935316086

> <CNNaffinity_variance>
0.3107097745

$$$$
[H]c1c([H])c(S(=O)(=O)N([H])[H])c([H])c([H])c1-c1nc2c(c([H])nn2-c2c([H])c([H])c(C([H])([H])[H])c([H])c2[H])c(=O)n1[H]


 30 33  0  0  0  0  0  0  0  0999 V2000
    0.7857  -51.6001  -21.9709 C   0  0  0  0  0  0  0  0  0  0  0  0
    0.4178  -52.1723  -20.8143 N   0  0  0  0  0  0  0  0  0  0  0  0
   -0.3290  -53.3106  -20.7415 C   0  0  0  0  0  0  0  0  0  0  0  0
   -0.6568  -53.8210  -19.6454 O   0  0  0  0  0  0  0  0  0  0  0  0
   -0.7382  -53.9221  -21.8952 C   0  0  0  0  0  0  0  0  0  0  0  0
   -0.3562  -53.3283  -23.0790 C   0  0  0  0  0  0  0  0  0  0  0  0
    0.3773  -52.2103  -23.1254 N   0  0  0  0  0  0  0  0  0  0  0  0
   -0.8431  -54.0595  -24.1207 N   0  0  0  0  0  0  0  0  0  0  0  0
   -1.5003  -55.0661  -23.5825 N   0  0  0  0  0  0  0  0  0  0  0  0
   -1.4669  -55.0289  -22.2432 C   0  0  0  0  0  0  0  0  0  0  0  0
    0.6935  -51.7612  -19.9139 H   0  0  0  0  0  0  0  0  0  0  0  0
   -0.6552  -53.7591  -25.5065 C   0  0  0  0  0  0  0  0  0  0  0  0
    0.1753  -54.4986  -26.3241 C   0  0  0  0  0  0  0  0  0  0  0  0
    0.3380  -54.1862  -27.6582 C   0  0  0  0  0  0  0  0  0  0  0  0
   -0.3147  -53.1254  -28.2467 C   0  0  0  0  0  0  0  0  0  0  0  0
   -0.1295  -52.7970  -29.6954 C   0  0  0  0  0  0  0  0  0  0  0  0
   -1.1446  -52.3846  -27.4341 C   0  0  0  0  0  0  0  0  0  0  0  0
   -1.3075  -52.6970  -26.0994 C   0  0  0  0  0  0  0  0  0  0  0  0
    3.1527  -48.0798  -22.2030 C   0  0  0  0  0  0  0  0  0  0  0  0
    2.0483  -48.1018  -21.3916 C   0  0  0  0  0  0  0  0  0  0  0  0
    1.2681  -49.2654  -21.3164 C   0  0  0  0  0  0  0  0  0  0  0  0
    1.5845  -50.3824  -22.0364 C   0  0  0  0  0  0  0  0  0  0  0  0
    2.6944  -50.3387  -22.8424 C   0  0  0  0  0  0  0  0  0  0  0  0
    3.4882  -49.1915  -22.9347 C   0  0  0  0  0  0  0  0  0  0  0  0
    4.1214  -46.6273  -22.2928 S   0  0  0  0  0  0  0  0  0  0  0  0
    5.6007  -46.9840  -22.3286 O   0  0  0  0  0  0  0  0  0  0  0  0
    3.8741  -45.7370  -21.0967 O   0  0  0  0  0  0  0  0  0  0  0  0
    3.7460  -45.7346  -23.7088 N   0  0  0  0  0  0  0  0  0  0  0  0
    4.4412  -45.9216  -24.4657 H   0  0  0  0  0  0  0  0  0  0  0  0
    2.7850  -45.9280  -24.0236 H   0  0  0  0  0  0  0  0  0  0  0  0
 19 25  1  0  0  0
 25 26  2  0  0  0
 25 27  2  0  0  0
 25 28  1  0  0  0
 19 20  2  0  0  0
 20 21  1  0  0  0
 21 22  2  0  0  0
 22  1  1  0  0  0
  1  2  1  0  0  0
  2  3  1  0  0  0
  3  4  2  0  0  0
  3  5  1  0  0  0
  5  6  2  0  0  0
  6  7  1  0  0  0
  6  8  1  0  0  0
  8 12  1  0  0  0
 12 13  2  0  0  0
 13 14  1  0  0  0
 14 15  2  0  0  0
 15 16  1  0  0  0
 15 17  1  0  0  0
 17 18  2  0  0  0
  8  9  1  0  0  0
  9 10  2  0  0  0
 22 23  1  0  0  0
 23 24  2  0  0  0
 24 19  1  0  0  0
  7  1  2  0  0  0
 18 12  1  0  0  0
 10  5  1  0  0  0
 28 29  1  0  0  0
 28 30  1  0  0  0
  2 11  1  0  0  0
M  END
> <minimizedAffinity>
-8.44916

> <CNNscore>
0.5824523568

> <CNNaffinity>
6.8519272804

> <CNN_VS>
3.9909212589

> <CNNaffinity_variance>
0.3383453488

$$$$
[H]c1c([H])c(S(=O)(=O)N([H])[H])c([H])c([H])c1-c1nc2c(c([H])nn2-c2c([H])c([H])c(C([H])([H])[H])c([H])c2[H])c(=O)n1[H]


 30 33  0  0  0  0  0  0  0  0999 V2000
    0.4269  -51.8962  -21.6332 C   0  0  0  0  0  0  0  0  0  0  0  0
   -0.4898  -52.8658  -21.7743 N   0  0  0  0  0  0  0  0  0  0  0  0
   -1.1780  -53.4091  -20.7302 C   0  0  0  0  0  0  0  0  0  0  0  0
   -2.0285  -54.3140  -20.8943 O   0  0  0  0  0  0  0  0  0  0  0  0
   -0.9397  -52.9590  -19.4601 C   0  0  0  0  0  0  0  0  0  0  0  0
    0.0032  -51.9631  -19.3235 C   0  0  0  0  0  0  0  0  0  0  0  0
    0.6664  -51.4452  -20.3639 N   0  0  0  0  0  0  0  0  0  0  0  0
    0.1160  -51.6350  -18.0058 N   0  0  0  0  0  0  0  0  0  0  0  0
   -0.7340  -52.4100  -17.3643 N   0  0  0  0  0  0  0  0  0  0  0  0
   -1.3954  -53.2267  -18.1961 C   0  0  0  0  0  0  0  0  0  0  0  0
   -0.7136  -53.2461  -22.7022 H   0  0  0  0  0  0  0  0  0  0  0  0
    0.9941  -50.6418  -17.4688 C   0  0  0  0  0  0  0  0  0  0  0  0
    0.5373  -49.4615  -16.9179 C   0  0  0  0  0  0  0  0  0  0  0  0
    1.4074  -48.5204  -16.4069 C   0  0  0  0  0  0  0  0  0  0  0  0
    2.7727  -48.7034  -16.4172 C   0  0  0  0  0  0  0  0  0  0  0  0
    3.7060  -47.6744  -15.8594 C   0  0  0  0  0  0  0  0  0  0  0  0
    3.2329  -49.8802  -16.9662 C   0  0  0  0  0  0  0  0  0  0  0  0
    2.3625  -50.8219  -17.4774 C   0  0  0  0  0  0  0  0  0  0  0  0
    2.5881  -50.1906  -24.8688 C   0  0  0  0  0  0  0  0  0  0  0  0
    1.6039  -51.1105  -25.1211 C   0  0  0  0  0  0  0  0  0  0  0  0
    0.8914  -51.6725  -24.0511 C   0  0  0  0  0  0  0  0  0  0  0  0
    1.1567  -51.3229  -22.7574 C   0  0  0  0  0  0  0  0  0  0  0  0
    2.1462  -50.4000  -22.5274 C   0  0  0  0  0  0  0  0  0  0  0  0
    2.8705  -49.8255  -23.5762 C   0  0  0  0  0  0  0  0  0  0  0  0
    3.4727  -49.4935  -26.2059 S   0  0  0  0  0  0  0  0  0  0  0  0
    2.9935  -48.0730  -26.4690 O   0  0  0  0  0  0  0  0  0  0  0  0
    3.2765  -50.3044  -27.4661 O   0  0  0  0  0  0  0  0  0  0  0  0
    5.1525  -49.4422  -25.8608 N   0  0  0  0  0  0  0  0  0  0  0  0
    5.4386  -48.4941  -25.5285 H   0  0  0  0  0  0  0  0  0  0  0  0
    5.4131  -50.1732  -25.1842 H   0  0  0  0  0  0  0  0  0  0  0  0
 19 25  1  0  0  0
 25 26  2  0  0  0
 25 27  2  0  0  0
 25 28  1  0  0  0
 19 20  2  0  0  0
 20 21  1  0  0  0
 21 22  2  0  0  0
 22  1  1  0  0  0
  1  2  1  0  0  0
  2  3  1  0  0  0
  3  4  2  0  0  0
  3  5  1  0  0  0
  5  6  2  0  0  0
  6  7  1  0  0  0
  6  8  1  0  0  0
  8 12  1  0  0  0
 12 13  2  0  0  0
 13 14  1  0  0  0
 14 15  2  0  0  0
 15 16  1  0  0  0
 15 17  1  0  0  0
 17 18  2  0  0  0
  8  9  1  0  0  0
  9 10  2  0  0  0
 22 23  1  0  0  0
 23 24  2  0  0  0
 24 19  1  0  0  0
  7  1  2  0  0  0
 18 12  1  0  0  0
 10  5  1  0  0  0
 28 29  1  0  0  0
 28 30  1  0  0  0
  2 11  1  0  0  0
M  END
> <minimizedAffinity>
-7.38772

> <CNNscore>
0.5169149637

> <CNNaffinity>
6.3782978058

> <CNN_VS>
3.2970376015

> <CNNaffinity_variance>
0.3890161514

$$$$
[H]c1c([H])c(S(=O)(=O)N([H])[H])c([H])c([H])c1-c1nc2c(c([H])nn2-c2c([H])c([H])c(C([H])([H])[H])c([H])c2[H])c(=O)n1[H]


 30 33  0  0  0  0  0  0  0  0999 V2000
    0.7794  -52.1587  -20.4866 C   0  0  0  0  0  0  0  0  0  0  0  0
   -0.1623  -53.0515  -20.8277 N   0  0  0  0  0  0  0  0  0  0  0  0
   -1.1607  -53.4504  -19.9892 C   0  0  0  0  0  0  0  0  0  0  0  0
   -2.0260  -54.2866  -20.3374 O   0  0  0  0  0  0  0  0  0  0  0  0
   -1.2285  -52.9272  -18.7267 C   0  0  0  0  0  0  0  0  0  0  0  0
   -0.2577  -52.0108  -18.3839 C   0  0  0  0  0  0  0  0  0  0  0  0
    0.7131  -51.6347  -19.2245 N   0  0  0  0  0  0  0  0  0  0  0  0
   -0.4714  -51.5940  -17.1043 N   0  0  0  0  0  0  0  0  0  0  0  0
   -1.5404  -52.2396  -16.6856 N   0  0  0  0  0  0  0  0  0  0  0  0
   -2.0347  -53.0560  -17.6265 C   0  0  0  0  0  0  0  0  0  0  0  0
   -0.1658  -53.4805  -21.7614 H   0  0  0  0  0  0  0  0  0  0  0  0
    0.3288  -50.6440  -16.3951 C   0  0  0  0  0  0  0  0  0  0  0  0
    1.5135  -50.9830  -15.7732 C   0  0  0  0  0  0  0  0  0  0  0  0
    2.2658  -50.0457  -15.0956 C   0  0  0  0  0  0  0  0  0  0  0  0
    1.8803  -48.7264  -15.0013 C   0  0  0  0  0  0  0  0  0  0  0  0
    2.7057  -47.7191  -14.2631 C   0  0  0  0  0  0  0  0  0  0  0  0
    0.6984  -48.3838  -15.6206 C   0  0  0  0  0  0  0  0  0  0  0  0
   -0.0544  -49.3215  -16.2987 C   0  0  0  0  0  0  0  0  0  0  0  0
    3.9157  -50.9284  -23.0748 C   0  0  0  0  0  0  0  0  0  0  0  0
    2.7066  -51.2990  -23.6034 C   0  0  0  0  0  0  0  0  0  0  0  0
    1.6723  -51.7048  -22.7468 C   0  0  0  0  0  0  0  0  0  0  0  0
    1.8425  -51.7398  -21.3918 C   0  0  0  0  0  0  0  0  0  0  0  0
    3.0610  -51.3647  -20.8838 C   0  0  0  0  0  0  0  0  0  0  0  0
    4.1076  -50.9563  -21.7161 C   0  0  0  0  0  0  0  0  0  0  0  0
    5.2011  -50.4234  -24.1468 S   0  0  0  0  0  0  0  0  0  0  0  0
    6.1269  -49.4481  -23.4338 O   0  0  0  0  0  0  0  0  0  0  0  0
    4.6446  -49.7415  -25.3755 O   0  0  0  0  0  0  0  0  0  0  0  0
    6.1285  -51.7726  -24.6595 N   0  0  0  0  0  0  0  0  0  0  0  0
    7.0018  -51.8646  -24.0939 H   0  0  0  0  0  0  0  0  0  0  0  0
    5.5694  -52.6368  -24.6328 H   0  0  0  0  0  0  0  0  0  0  0  0
 19 25  1  0  0  0
 25 26  2  0  0  0
 25 27  2  0  0  0
 25 28  1  0  0  0
 19 20  2  0  0  0
 20 21  1  0  0  0
 21 22  2  0  0  0
 22  1  1  0  0  0
  1  2  1  0  0  0
  2  3  1  0  0  0
  3  4  2  0  0  0
  3  5  1  0  0  0
  5  6  2  0  0  0
  6  7  1  0  0  0
  6  8  1  0  0  0
  8 12  1  0  0  0
 12 13  2  0  0  0
 13 14  1  0  0  0
 14 15  2  0  0  0
 15 16  1  0  0  0
 15 17  1  0  0  0
 17 18  2  0  0  0
  8  9  1  0  0  0
  9 10  2  0  0  0
 22 23  1  0  0  0
 23 24  2  0  0  0
 24 19  1  0  0  0
  7  1  2  0  0  0
 18 12  1  0  0  0
 10  5  1  0  0  0
 28 29  1  0  0  0
 28 30  1  0  0  0
  2 11  1  0  0  0
M  END
> <minimizedAffinity>
-6.83971

> <CNNscore>
0.4716832638

> <CNNaffinity>
6.1376848221

> <CNN_VS>
2.8950431347

> <CNNaffinity_variance>
0.2070600539

$$$$
[H]c1c([H])c(S(=O)(=O)N([H])[H])c([H])c([H])c1-c1nc2c(c([H])nn2-c2c([H])c([H])c(C([H])([H])[H])c([H])c2[H])c(=O)n1[H]


 30 33  0  0  0  0  0  0  0  0999 V2000
    1.1457  -52.1124  -23.8514 C   0  0  0  0  0  0  0  0  0  0  0  0
    0.6467  -53.0733  -24.6438 N   0  0  0  0  0  0  0  0  0  0  0  0
   -0.2281  -54.0260  -24.2126 C   0  0  0  0  0  0  0  0  0  0  0  0
   -0.6766  -54.9108  -24.9776 O   0  0  0  0  0  0  0  0  0  0  0  0
   -0.6350  -54.0242  -22.9062 C   0  0  0  0  0  0  0  0  0  0  0  0
   -0.1181  -53.0341  -22.0987 C   0  0  0  0  0  0  0  0  0  0  0  0
    0.7399  -52.1093  -22.5447 N   0  0  0  0  0  0  0  0  0  0  0  0
   -0.6224  -53.1774  -20.8409 N   0  0  0  0  0  0  0  0  0  0  0  0
   -1.4211  -54.2237  -20.8867 N   0  0  0  0  0  0  0  0  0  0  0  0
   -1.4635  -54.7701  -22.1097 C   0  0  0  0  0  0  0  0  0  0  0  0
    0.9137  -53.1283  -25.6345 H   0  0  0  0  0  0  0  0  0  0  0  0
   -0.3193  -52.3378  -19.7233 C   0  0  0  0  0  0  0  0  0  0  0  0
   -0.7356  -52.6260  -18.4393 C   0  0  0  0  0  0  0  0  0  0  0  0
   -0.4287  -51.7978  -17.3791 C   0  0  0  0  0  0  0  0  0  0  0  0
    0.3058  -50.6435  -17.5403 C   0  0  0  0  0  0  0  0  0  0  0  0
    0.6320  -49.7535  -16.3817 C   0  0  0  0  0  0  0  0  0  0  0  0
    0.7232  -50.3521  -18.8204 C   0  0  0  0  0  0  0  0  0  0  0  0
    0.4163  -51.1806  -19.8812 C   0  0  0  0  0  0  0  0  0  0  0  0
    3.8997  -49.1589  -25.1711 C   0  0  0  0  0  0  0  0  0  0  0  0
    2.9299  -49.6122  -26.0271 C   0  0  0  0  0  0  0  0  0  0  0  0
    2.0215  -50.5875  -25.5891 C   0  0  0  0  0  0  0  0  0  0  0  0
    2.0809  -51.0988  -24.3237 C   0  0  0  0  0  0  0  0  0  0  0  0
    3.0597  -50.6308  -23.4831 C   0  0  0  0  0  0  0  0  0  0  0  0
    3.9768  -49.6593  -23.8954 C   0  0  0  0  0  0  0  0  0  0  0  0
    5.0290  -47.9434  -25.7220 S   0  0  0  0  0  0  0  0  0  0  0  0
    5.8321  -47.4020  -24.5478 O   0  0  0  0  0  0  0  0  0  0  0  0
    4.3054  -46.7897  -26.3775 O   0  0  0  0  0  0  0  0  0  0  0  0
    6.1229  -48.6058  -26.8656 N   0  0  0  0  0  0  0  0  0  0  0  0
    7.0305  -48.8581  -26.4144 H   0  0  0  0  0  0  0  0  0  0  0  0
    5.7062  -49.4126  -27.3511 H   0  0  0  0  0  0  0  0  0  0  0  0
 19 25  1  0  0  0
 25 26  2  0  0  0
 25 27  2  0  0  0
 25 28  1  0  0  0
 19 20  2  0  0  0
 20 21  1  0  0  0
 21 22  2  0  0  0
 22  1  1  0  0  0
  1  2  1  0  0  0
  2  3  1  0  0  0
  3  4  2  0  0  0
  3  5  1  0  0  0
  5  6  2  0  0  0
  6  7  1  0  0  0
  6  8  1  0  0  0
  8 12  1  0  0  0
 12 13  2  0  0  0
 13 14  1  0  0  0
 14 15  2  0  0  0
 15 16  1  0  0  0
 15 17  1  0  0  0
 17 18  2  0  0  0
  8  9  1  0  0  0
  9 10  2  0  0  0
 22 23  1  0  0  0
 23 24  2  0  0  0
 24 19  1  0  0  0
  7  1  2  0  0  0
 18 12  1  0  0  0
 10  5  1  0  0  0
 28 29  1  0  0  0
 28 30  1  0  0  0
  2 11  1  0  0  0
M  END
> <minimizedAffinity>
-8.10082

> <CNNscore>
0.4353778064

> <CNNaffinity>
6.5158410072

> <CNN_VS>
2.8368525505

> <CNNaffinity_variance>
0.5932073593

$$$$
[H]c1nc2c(c([H])c1[H])c1c([H])c([H])c(N([H])[H])c([H])c1n2[H]


 17 19  0  0  0  0  0  0  0  0999 V2000
    1.2627  -54.0025  -28.2456 N   0  0  0  0  0  0  0  0  0  0  0  0
    0.9422  -53.7715  -26.8906 C   0  0  0  0  0  0  0  0  0  0  0  0
    1.5460  -52.7107  -26.2138 C   0  0  0  0  0  0  0  0  0  0  0  0
    1.2326  -52.4883  -24.8957 C   0  0  0  0  0  0  0  0  0  0  0  0
    0.3327  -53.2932  -24.2290 C   0  0  0  0  0  0  0  0  0  0  0  0
   -0.1727  -53.3237  -22.9442 C   0  0  0  0  0  0  0  0  0  0  0  0
    0.0448  -52.5383  -21.8295 C   0  0  0  0  0  0  0  0  0  0  0  0
   -0.6002  -52.7826  -20.6333 C   0  0  0  0  0  0  0  0  0  0  0  0
   -1.4885  -53.8312  -20.5236 C   0  0  0  0  0  0  0  0  0  0  0  0
   -1.6814  -54.5792  -21.6233 N   0  0  0  0  0  0  0  0  0  0  0  0
   -1.0669  -54.3642  -22.8010 C   0  0  0  0  0  0  0  0  0  0  0  0
   -1.1073  -54.9757  -24.0135 N   0  0  0  0  0  0  0  0  0  0  0  0
   -0.2845  -54.3554  -24.8732 C   0  0  0  0  0  0  0  0  0  0  0  0
    0.0438  -54.5614  -26.1953 C   0  0  0  0  0  0  0  0  0  0  0  0
    2.1245  -54.4977  -28.4914 H   0  0  0  0  0  0  0  0  0  0  0  0
    0.6229  -53.6690  -28.9812 H   0  0  0  0  0  0  0  0  0  0  0  0
   -1.7011  -55.7992  -24.2048 H   0  0  0  0  0  0  0  0  0  0  0  0
  1  2  1  0  0  0
  2  3  2  0  0  0
  3  4  1  0  0  0
  4  5  2  0  0  0
  5  6  1  0  0  0
  6  7  2  0  0  0
  7  8  1  0  0  0
  8  9  2  0  0  0
  9 10  1  0  0  0
 10 11  2  0  0  0
 11 12  1  0  0  0
 12 13  1  0  0  0
 13 14  2  0  0  0
 14  2  1  0  0  0
 13  5  1  0  0  0
 11  6  1  0  0  0
  1 15  1  0  0  0
  1 16  1  0  0  0
 12 17  1  0  0  0
M  END
> <minimizedAffinity>
-6.79243

> <CNNscore>
0.8920937181

> <CNNaffinity>
5.4443917274

> <CNN_VS>
4.8569078445

> <CNNaffinity_variance>
0.1181753427

$$$$
[H]c1nc2c(c([H])c1[H])c1c([H])c([H])c(N([H])[H])c([H])c1n2[H]


 17 19  0  0  0  0  0  0  0  0999 V2000
    3.1149  -52.6259  -27.2991 N   0  0  0  0  0  0  0  0  0  0  0  0
    2.4879  -52.7253  -26.0385 C   0  0  0  0  0  0  0  0  0  0  0  0
    3.0780  -52.1184  -24.9288 C   0  0  0  0  0  0  0  0  0  0  0  0
    2.4660  -52.2167  -23.7037 C   0  0  0  0  0  0  0  0  0  0  0  0
    1.2799  -52.9035  -23.5499 C   0  0  0  0  0  0  0  0  0  0  0  0
    0.4471  -53.1710  -22.4813 C   0  0  0  0  0  0  0  0  0  0  0  0
    0.5002  -52.8393  -21.1418 C   0  0  0  0  0  0  0  0  0  0  0  0
   -0.4816  -53.2383  -20.2566 C   0  0  0  0  0  0  0  0  0  0  0  0
   -1.5519  -53.9875  -20.6965 C   0  0  0  0  0  0  0  0  0  0  0  0
   -1.5787  -54.2961  -22.0042 N   0  0  0  0  0  0  0  0  0  0  0  0
   -0.6366  -53.9210  -22.8888 C   0  0  0  0  0  0  0  0  0  0  0  0
   -0.4623  -54.1132  -24.2224 N   0  0  0  0  0  0  0  0  0  0  0  0
    0.6681  -53.5176  -24.6328 C   0  0  0  0  0  0  0  0  0  0  0  0
    1.2983  -53.4071  -25.8530 C   0  0  0  0  0  0  0  0  0  0  0  0
    3.8980  -53.2430  -27.5323 H   0  0  0  0  0  0  0  0  0  0  0  0
    2.7776  -51.9289  -27.9789 H   0  0  0  0  0  0  0  0  0  0  0  0
   -1.1294  -54.6483  -24.8019 H   0  0  0  0  0  0  0  0  0  0  0  0
  1  2  1  0  0  0
  2  3  2  0  0  0
  3  4  1  0  0  0
  4  5  2  0  0  0
  5  6  1  0  0  0
  6  7  2  0  0  0
  7  8  1  0  0  0
  8  9  2  0  0  0
  9 10  1  0  0  0
 10 11  2  0  0  0
 11 12  1  0  0  0
 12 13  1  0  0  0
 13 14  2  0  0  0
 14  2  1  0  0  0
 13  5  1  0  0  0
 11  6  1  0  0  0
  1 15  1  0  0  0
  1 16  1  0  0  0
 12 17  1  0  0  0
M  END
> <minimizedAffinity>
-5.97547

> <CNNscore>
0.6589061022

> <CNNaffinity>
4.9477672577

> <CNN_VS>
3.2601139545

> <CNNaffinity_variance>
0.1050118655

$$$$
[H]c1nc2c(c([H])c1[H])c1c([H])c([H])c(N([H])[H])c([H])c1n2[H]


 17 19  0  0  0  0  0  0  0  0999 V2000
   -1.3685  -55.6943  -24.3594 N   0  0  0  0  0  0  0  0  0  0  0  0
   -0.9735  -54.7099  -23.4283 C   0  0  0  0  0  0  0  0  0  0  0  0
   -0.3122  -53.5659  -23.8780 C   0  0  0  0  0  0  0  0  0  0  0  0
    0.0710  -52.6100  -22.9701 C   0  0  0  0  0  0  0  0  0  0  0  0
   -0.1852  -52.7593  -21.6232 C   0  0  0  0  0  0  0  0  0  0  0  0
    0.0670  -51.9981  -20.4989 C   0  0  0  0  0  0  0  0  0  0  0  0
    0.6842  -50.7775  -20.3091 C   0  0  0  0  0  0  0  0  0  0  0  0
    0.8131  -50.2177  -19.0534 C   0  0  0  0  0  0  0  0  0  0  0  0
    0.3215  -50.8743  -17.9454 C   0  0  0  0  0  0  0  0  0  0  0  0
   -0.2743  -52.0599  -18.1586 N   0  0  0  0  0  0  0  0  0  0  0  0
   -0.4137  -52.6287  -19.3701 C   0  0  0  0  0  0  0  0  0  0  0  0
   -0.9659  -53.7888  -19.8116 N   0  0  0  0  0  0  0  0  0  0  0  0
   -0.8404  -53.8844  -21.1443 C   0  0  0  0  0  0  0  0  0  0  0  0
   -1.2164  -54.8315  -22.0716 C   0  0  0  0  0  0  0  0  0  0  0  0
   -0.6866  -56.3746  -24.7066 H   0  0  0  0  0  0  0  0  0  0  0  0
   -2.3460  -55.7207  -24.6843 H   0  0  0  0  0  0  0  0  0  0  0  0
   -1.4097  -54.4734  -19.1779 H   0  0  0  0  0  0  0  0  0  0  0  0
  1  2  1  0  0  0
  2  3  2  0  0  0
  3  4  1  0  0  0
  4  5  2  0  0  0
  5  6  1  0  0  0
  6  7  2  0  0  0
  7  8  1  0  0  0
  8  9  2  0  0  0
  9 10  1  0  0  0
 10 11  2  0  0  0
 11 12  1  0  0  0
 12 13  1  0  0  0
 13 14  2  0  0  0
 14  2  1  0  0  0
 13  5  1  0  0  0
 11  6  1  0  0  0
  1 15  1  0  0  0
  1 16  1  0  0  0
 12 17  1  0  0  0
M  END
> <minimizedAffinity>
-6.78928

> <CNNscore>
0.6584814191

> <CNNaffinity>
4.6860427856

> <CNN_VS>
3.0856721401

> <CNNaffinity_variance>
0.2324279845

$$$$
[H]c1nc2c(c([H])c1[H])c1c([H])c([H])c(N([H])[H])c([H])c1n2[H]


 17 19  0  0  0  0  0  0  0  0999 V2000
    5.1083  -52.4478  -23.1858 N   0  0  0  0  0  0  0  0  0  0  0  0
    3.9592  -52.4674  -24.0051 C   0  0  0  0  0  0  0  0  0  0  0  0
    2.7066  -52.2315  -23.4362 C   0  0  0  0  0  0  0  0  0  0  0  0
    1.5905  -52.2512  -24.2354 C   0  0  0  0  0  0  0  0  0  0  0  0
    1.6843  -52.4995  -25.5888 C   0  0  0  0  0  0  0  0  0  0  0  0
    0.7738  -52.5830  -26.6237 C   0  0  0  0  0  0  0  0  0  0  0  0
   -0.5990  -52.4444  -26.6817 C   0  0  0  0  0  0  0  0  0  0  0  0
   -1.2917  -52.5781  -27.8686 C   0  0  0  0  0  0  0  0  0  0  0  0
   -0.6188  -52.8570  -29.0391 C   0  0  0  0  0  0  0  0  0  0  0  0
    0.7161  -52.9867  -28.9542 N   0  0  0  0  0  0  0  0  0  0  0  0
    1.4165  -52.8617  -27.8120 C   0  0  0  0  0  0  0  0  0  0  0  0
    2.7354  -52.9493  -27.4977 N   0  0  0  0  0  0  0  0  0  0  0  0
    2.9142  -52.7376  -26.1846 C   0  0  0  0  0  0  0  0  0  0  0  0
    4.0215  -52.7135  -25.3652 C   0  0  0  0  0  0  0  0  0  0  0  0
    5.3481  -53.2664  -22.6194 H   0  0  0  0  0  0  0  0  0  0  0  0
    5.7004  -51.6049  -23.1640 H   0  0  0  0  0  0  0  0  0  0  0  0
    3.4652  -53.1520  -28.2002 H   0  0  0  0  0  0  0  0  0  0  0  0
  1  2  1  0  0  0
  2  3  2  0  0  0
  3  4  1  0  0  0
  4  5  2  0  0  0
  5  6  1  0  0  0
  6  7  2  0  0  0
  7  8  1  0  0  0
  8  9  2  0  0  0
  9 10  1  0  0  0
 10 11  2  0  0  0
 11 12  1  0  0  0
 12 13  1  0  0  0
 13 14  2  0  0  0
 14  2  1  0  0  0
 13  5  1  0  0  0
 11  6  1  0  0  0
  1 15  1  0  0  0
  1 16  1  0  0  0
 12 17  1  0  0  0
M  END
> <minimizedAffinity>
-6.23985

> <CNNscore>
0.6130309701

> <CNNaffinity>
4.8752613068

> <CNN_VS>
2.9886860847

> <CNNaffinity_variance>
0.1991084814

$$$$
[H]c1nc2c(c([H])c1[H])c1c([H])c([H])c(N([H])[H])c([H])c1n2[H]


 17 19  0  0  0  0  0  0  0  0999 V2000
   -0.3017  -54.2904  -26.6531 N   0  0  0  0  0  0  0  0  0  0  0  0
   -0.1821  -53.7148  -25.3700 C   0  0  0  0  0  0  0  0  0  0  0  0
    0.3987  -52.4528  -25.2354 C   0  0  0  0  0  0  0  0  0  0  0  0
    0.5138  -51.8952  -23.9861 C   0  0  0  0  0  0  0  0  0  0  0  0
    0.0663  -52.5587  -22.8628 C   0  0  0  0  0  0  0  0  0  0  0  0
    0.0422  -52.2700  -21.5126 C   0  0  0  0  0  0  0  0  0  0  0  0
    0.4688  -51.1827  -20.7758 C   0  0  0  0  0  0  0  0  0  0  0  0
    0.3273  -51.1365  -19.4030 C   0  0  0  0  0  0  0  0  0  0  0  0
   -0.2514  -52.1899  -18.7277 C   0  0  0  0  0  0  0  0  0  0  0  0
   -0.6574  -53.2348  -19.4688 N   0  0  0  0  0  0  0  0  0  0  0  0
   -0.5321  -53.3067  -20.8066 C   0  0  0  0  0  0  0  0  0  0  0  0
   -0.8623  -54.2390  -21.7380 N   0  0  0  0  0  0  0  0  0  0  0  0
   -0.5155  -53.8140  -22.9628 C   0  0  0  0  0  0  0  0  0  0  0  0
   -0.6215  -54.3557  -24.2252 C   0  0  0  0  0  0  0  0  0  0  0  0
    0.5042  -54.7510  -27.0855 H   0  0  0  0  0  0  0  0  0  0  0  0
   -1.2044  -54.2425  -27.1475 H   0  0  0  0  0  0  0  0  0  0  0  0
   -1.3151  -55.1354  -21.4957 H   0  0  0  0  0  0  0  0  0  0  0  0
  1  2  1  0  0  0
  2  3  2  0  0  0
  3  4  1  0  0  0
  4  5  2  0  0  0
  5  6  1  0  0  0
  6  7  2  0  0  0
  7  8  1  0  0  0
  8  9  2  0  0  0
  9 10  1  0  0  0
 10 11  2  0  0  0
 11 12  1  0  0  0
 12 13  1  0  0  0
 13 14  2  0  0  0
 14  2  1  0  0  0
 13  5  1  0  0  0
 11  6  1  0  0  0
  1 15  1  0  0  0
  1 16  1  0  0  0
 12 17  1  0  0  0
M  END
> <minimizedAffinity>
-6.34459

> <CNNscore>
0.5520142317

> <CNNaffinity>
4.8849782944

> <CNN_VS>
2.6965775490

> <CNNaffinity_variance>
0.1204111129

$$$$
[H]c1nc2c(c([H])c1[H])c1c([H])c([H])c(N([H])[H])c([H])c1n2[H]


 17 19  0  0  0  0  0  0  0  0999 V2000
   -1.3585  -55.8162  -24.2859 N   0  0  0  0  0  0  0  0  0  0  0  0
   -0.9408  -54.7073  -23.5192 C   0  0  0  0  0  0  0  0  0  0  0  0
   -1.2662  -54.6488  -22.1631 C   0  0  0  0  0  0  0  0  0  0  0  0
   -0.8587  -53.5690  -21.4196 C   0  0  0  0  0  0  0  0  0  0  0  0
   -0.1343  -52.5420  -21.9877 C   0  0  0  0  0  0  0  0  0  0  0  0
    0.4026  -51.3598  -21.5175 C   0  0  0  0  0  0  0  0  0  0  0  0
    0.4099  -50.7595  -20.2738 C   0  0  0  0  0  0  0  0  0  0  0  0
    1.0318  -49.5457  -20.0582 C   0  0  0  0  0  0  0  0  0  0  0  0
    1.6685  -48.8967  -21.0946 C   0  0  0  0  0  0  0  0  0  0  0  0
    1.6462  -49.5028  -22.2937 N   0  0  0  0  0  0  0  0  0  0  0  0
    1.0483  -50.6845  -22.5323 C   0  0  0  0  0  0  0  0  0  0  0  0
    0.9033  -51.4647  -23.6351 N   0  0  0  0  0  0  0  0  0  0  0  0
    0.2052  -52.5701  -23.3324 C   0  0  0  0  0  0  0  0  0  0  0  0
   -0.2133  -53.6623  -24.0606 C   0  0  0  0  0  0  0  0  0  0  0  0
   -2.3179  -55.8622  -24.6405 H   0  0  0  0  0  0  0  0  0  0  0  0
   -0.6905  -56.5753  -24.4840 H   0  0  0  0  0  0  0  0  0  0  0  0
    1.2911  -51.2069  -24.5572 H   0  0  0  0  0  0  0  0  0  0  0  0
  1  2  1  0  0  0
  2  3  2  0  0  0
  3  4  1  0  0  0
  4  5  2  0  0  0
  5  6  1  0  0  0
  6  7  2  0  0  0
  7  8  1  0  0  0
  8  9  2  0  0  0
  9 10  1  0  0  0
 10 11  2  0  0  0
 11 12  1  0  0  0
 12 13  1  0  0  0
 13 14  2  0  0  0
 14  2  1  0  0  0
 13  5  1  0  0  0
 11  6  1  0  0  0
  1 15  1  0  0  0
  1 16  1  0  0  0
 12 17  1  0  0  0
M  END
> <minimizedAffinity>
-6.41898

> <CNNscore>
0.5080891848

> <CNNaffinity>
4.7778863907

> <CNN_VS>
2.4275925159

> <CNNaffinity_variance>
0.0938705504

$$$$
[H]c1nc2c(c([H])c1[H])c1c([H])c([H])c(N([H])[H])c([H])c1n2[H]


 17 19  0  0  0  0  0  0  0  0999 V2000
    4.2932  -50.7181  -21.6826 N   0  0  0  0  0  0  0  0  0  0  0  0
    4.0180  -49.8985  -22.7982 C   0  0  0  0  0  0  0  0  0  0  0  0
    3.3096  -48.7094  -22.6182 C   0  0  0  0  0  0  0  0  0  0  0  0
    3.0433  -47.9140  -23.7051 C   0  0  0  0  0  0  0  0  0  0  0  0
    3.4625  -48.2682  -24.9703 C   0  0  0  0  0  0  0  0  0  0  0  0
    3.3522  -47.6968  -26.2227 C   0  0  0  0  0  0  0  0  0  0  0  0
    2.7663  -46.5315  -26.6762 C   0  0  0  0  0  0  0  0  0  0  0  0
    2.7940  -46.1776  -28.0106 C   0  0  0  0  0  0  0  0  0  0  0  0
    3.4162  -46.9913  -28.9332 C   0  0  0  0  0  0  0  0  0  0  0  0
    3.9781  -48.1188  -28.4650 N   0  0  0  0  0  0  0  0  0  0  0  0
    3.9662  -48.4883  -27.1711 C   0  0  0  0  0  0  0  0  0  0  0  0
    4.4569  -49.5556  -26.4885 N   0  0  0  0  0  0  0  0  0  0  0  0
    4.1685  -49.4433  -25.1827 C   0  0  0  0  0  0  0  0  0  0  0  0
    4.4253  -50.2270  -24.0791 C   0  0  0  0  0  0  0  0  0  0  0  0
    3.5719  -51.3469  -21.3182 H   0  0  0  0  0  0  0  0  0  0  0  0
    5.2232  -50.6770  -21.2412 H   0  0  0  0  0  0  0  0  0  0  0  0
    4.9733  -50.3235  -26.9478 H   0  0  0  0  0  0  0  0  0  0  0  0
  1  2  1  0  0  0
  2  3  2  0  0  0
  3  4  1  0  0  0
  4  5  2  0  0  0
  5  6  1  0  0  0
  6  7  2  0  0  0
  7  8  1  0  0  0
  8  9  2  0  0  0
  9 10  1  0  0  0
 10 11  2  0  0  0
 11 12  1  0  0  0
 12 13  1  0  0  0
 13 14  2  0  0  0
 14  2  1  0  0  0
 13  5  1  0  0  0
 11  6  1  0  0  0
  1 15  1  0  0  0
  1 16  1  0  0  0
 12 17  1  0  0  0
M  END
> <minimizedAffinity>
-3.99321

> <CNNscore>
0.4441810250

> <CNNaffinity>
4.2488718033

> <CNN_VS>
1.8872681856

> <CNNaffinity_variance>
0.3493545651

$$$$
[H]c1nc2c(c([H])c1[H])c1c([H])c([H])c(N([H])[H])c([H])c1n2[H]


 17 19  0  0  0  0  0  0  0  0999 V2000
   -1.3587  -53.9653  -19.8706 N   0  0  0  0  0  0  0  0  0  0  0  0
   -1.0145  -53.6682  -21.2068 C   0  0  0  0  0  0  0  0  0  0  0  0
   -0.5904  -52.3798  -21.5359 C   0  0  0  0  0  0  0  0  0  0  0  0
   -0.2562  -52.0934  -22.8364 C   0  0  0  0  0  0  0  0  0  0  0  0
   -0.3317  -53.0547  -23.8225 C   0  0  0  0  0  0  0  0  0  0  0  0
   -0.0718  -53.0738  -25.1786 C   0  0  0  0  0  0  0  0  0  0  0  0
    0.3702  -52.1114  -26.0648 C   0  0  0  0  0  0  0  0  0  0  0  0
    0.5546  -52.3895  -27.4047 C   0  0  0  0  0  0  0  0  0  0  0  0
    0.2979  -53.6523  -27.8947 C   0  0  0  0  0  0  0  0  0  0  0  0
   -0.1309  -54.5694  -27.0109 N   0  0  0  0  0  0  0  0  0  0  0  0
   -0.3193  -54.3263  -25.7009 C   0  0  0  0  0  0  0  0  0  0  0  0
   -0.7353  -55.0804  -24.6501 N   0  0  0  0  0  0  0  0  0  0  0  0
   -0.7493  -54.3444  -23.5280 C   0  0  0  0  0  0  0  0  0  0  0  0
   -1.0800  -54.6110  -22.2173 C   0  0  0  0  0  0  0  0  0  0  0  0
   -2.2795  -53.7025  -19.5079 H   0  0  0  0  0  0  0  0  0  0  0  0
   -0.6768  -54.4473  -19.2672 H   0  0  0  0  0  0  0  0  0  0  0  0
   -0.9947  -56.0759  -24.7443 H   0  0  0  0  0  0  0  0  0  0  0  0
  1  2  1  0  0  0
  2  3  2  0  0  0
  3  4  1  0  0  0
  4  5  2  0  0  0
  5  6  1  0  0  0
  6  7  2  0  0  0
  7  8  1  0  0  0
  8  9  2  0  0  0
  9 10  1  0  0  0
 10 11  2  0  0  0
 11 12  1  0  0  0
 12 13  1  0  0  0
 13 14  2  0  0  0
 14  2  1  0  0  0
 13  5  1  0  0  0
 11  6  1  0  0  0
  1 15  1  0  0  0
  1 16  1  0  0  0
 12 17  1  0  0  0
M  END
> <minimizedAffinity>
-7.09103

> <CNNscore>
0.4243220389

> <CNNaffinity>
4.8616280556

> <CNN_VS>
2.0628960133

> <CNNaffinity_variance>
0.2103685588

$$$$
[H]c1nc2c(c([H])c1[H])c1c([H])c([H])c(N([H])[H])c([H])c1n2[H]


 17 19  0  0  0  0  0  0  0  0999 V2000
   -0.6040  -54.3781  -25.7411 N   0  0  0  0  0  0  0  0  0  0  0  0
   -0.5595  -53.9996  -24.3822 C   0  0  0  0  0  0  0  0  0  0  0  0
   -1.0591  -54.8688  -23.4110 C   0  0  0  0  0  0  0  0  0  0  0  0
   -1.0147  -54.4981  -22.0898 C   0  0  0  0  0  0  0  0  0  0  0  0
   -0.4859  -53.2838  -21.7051 C   0  0  0  0  0  0  0  0  0  0  0  0
   -0.3061  -52.6456  -20.4937 C   0  0  0  0  0  0  0  0  0  0  0  0
   -0.5981  -53.0007  -19.1916 C   0  0  0  0  0  0  0  0  0  0  0  0
   -0.3116  -52.1649  -18.1304 C   0  0  0  0  0  0  0  0  0  0  0  0
    0.2810  -50.9398  -18.3504 C   0  0  0  0  0  0  0  0  0  0  0  0
    0.5543  -50.6195  -19.6266 N   0  0  0  0  0  0  0  0  0  0  0  0
    0.2862  -51.4138  -20.6793 C   0  0  0  0  0  0  0  0  0  0  0  0
    0.4699  -51.2993  -22.0205 N   0  0  0  0  0  0  0  0  0  0  0  0
    0.0186  -52.3977  -22.6457 C   0  0  0  0  0  0  0  0  0  0  0  0
   -0.0354  -52.7887  -23.9657 C   0  0  0  0  0  0  0  0  0  0  0  0
   -1.4728  -54.2765  -26.2734 H   0  0  0  0  0  0  0  0  0  0  0  0
    0.2432  -54.7558  -26.1896 H   0  0  0  0  0  0  0  0  0  0  0  0
    0.9001  -50.4676  -22.4569 H   0  0  0  0  0  0  0  0  0  0  0  0
  1  2  1  0  0  0
  2  3  2  0  0  0
  3  4  1  0  0  0
  4  5  2  0  0  0
  5  6  1  0  0  0
  6  7  2  0  0  0
  7  8  1  0  0  0
  8  9  2  0  0  0
  9 10  1  0  0  0
 10 11  2  0  0  0
 11 12  1  0  0  0
 12 13  1  0  0  0
 13 14  2  0  0  0
 14  2  1  0  0  0
 13  5  1  0  0  0
 11  6  1  0  0  0
  1 15  1  0  0  0
  1 16  1  0  0  0
 12 17  1  0  0  0
M  END
> <minimizedAffinity>
-6.43861

> <CNNscore>
0.4204711914

> <CNNaffinity>
4.6155791283

> <CNN_VS>
1.9407180548

> <CNNaffinity_variance>
0.1663826108

$$$$
[H]c1sc(C(=O)OC([H])([H])C([H])([H])O[C@]([H])(N([H])[H])C([H])([H])C([H])([H])N2C(=O)[C@@]([H])(N([H])N3C(=O)c4c(c([H])c([H])n4[H])C([H])([H])C([H])(C(C([H])([H])[H])(C([H])([H])[H])C([H])([H])[H])C3=O)C([H])([H])C2([H])[H])c([H])c1[H]


 42 45  0  0  0  0  0  0  0  0999 V2000
   -0.5769  -52.5529  -20.5577 C   0  0  0  0  0  0  0  0  0  0  0  0
    0.1568  -51.7761  -21.6937 C   0  0  0  0  0  0  0  0  0  0  0  0
    0.7303  -52.9471  -22.5041 C   0  0  0  0  0  0  0  0  0  0  0  0
   -0.5046  -53.7540  -22.6156 N   0  0  0  0  0  0  0  0  0  0  0  0
   -1.0969  -53.7172  -21.3349 C   0  0  0  0  0  0  0  0  0  0  0  0
   -1.9385  -54.5490  -20.9223 O   0  0  0  0  0  0  0  0  0  0  0  0
    0.3909  -52.8341  -19.5918 N   0  0  0  0  0  0  0  0  0  0  0  0
    0.5712  -53.8175  -19.3758 H   0  0  0  0  0  0  0  0  0  0  0  0
    2.1454  -49.9908  -17.7393 C   0  0  0  0  0  0  0  0  0  0  0  0
    0.9265  -49.0842  -17.7690 C   0  0  0  0  0  0  0  0  0  0  0  0
   -0.0583  -49.5091  -16.7411 C   0  0  0  0  0  0  0  0  0  0  0  0
   -0.6182  -48.7537  -15.7368 C   0  0  0  0  0  0  0  0  0  0  0  0
   -1.4770  -49.5862  -15.0450 C   0  0  0  0  0  0  0  0  0  0  0  0
   -1.4604  -50.8245  -15.5927 N   0  0  0  0  0  0  0  0  0  0  0  0
   -0.5937  -50.7840  -16.6318 C   0  0  0  0  0  0  0  0  0  0  0  0
   -0.3164  -51.9574  -17.4730 C   0  0  0  0  0  0  0  0  0  0  0  0
   -0.9619  -53.0176  -17.2548 O   0  0  0  0  0  0  0  0  0  0  0  0
    0.6465  -52.0140  -18.5521 N   0  0  0  0  0  0  0  0  0  0  0  0
    1.8531  -51.2188  -18.5573 C   0  0  0  0  0  0  0  0  0  0  0  0
    2.7277  -51.6397  -19.3506 O   0  0  0  0  0  0  0  0  0  0  0  0
   -2.0017  -51.6675  -15.2919 H   0  0  0  0  0  0  0  0  0  0  0  0
    3.8685  -48.1866  -17.5165 C   0  0  0  0  0  0  0  0  0  0  0  0
    3.3364  -49.3154  -18.3727 C   0  0  0  0  0  0  0  0  0  0  0  0
    4.4933  -50.2934  -18.5355 C   0  0  0  0  0  0  0  0  0  0  0  0
    2.9388  -48.8360  -19.7489 C   0  0  0  0  0  0  0  0  0  0  0  0
   -0.9441  -54.3974  -23.8574 C   0  0  0  0  0  0  0  0  0  0  0  0
   -0.4565  -53.5814  -25.0575 C   0  0  0  0  0  0  0  0  0  0  0  0
    0.0858  -54.5039  -26.1337 C   0  0  0  0  0  0  0  0  0  0  0  0
   -0.3988  -55.8412  -25.7525 N   0  0  0  0  0  0  0  0  0  0  0  0
    0.2248  -56.2438  -24.9987 H   0  0  0  0  0  0  0  0  0  0  0  0
   -1.4001  -55.8089  -25.4434 H   0  0  0  0  0  0  0  0  0  0  0  0
   -0.5474  -54.1993  -27.3054 O   0  0  0  0  0  0  0  0  0  0  0  0
   -0.3021  -52.9669  -27.8314 C   0  0  0  0  0  0  0  0  0  0  0  0
    1.0806  -52.8107  -28.3336 C   0  0  0  0  0  0  0  0  0  0  0  0
    1.9163  -51.9331  -27.6401 O   0  0  0  0  0  0  0  0  0  0  0  0
    2.8639  -52.3689  -26.7240 C   0  0  0  0  0  0  0  0  0  0  0  0
    3.5389  -53.3756  -27.0067 O   0  0  0  0  0  0  0  0  0  0  0  0
    3.0275  -51.6326  -25.4748 C   0  0  0  0  0  0  0  0  0  0  0  0
    2.3656  -50.5163  -25.0468 C   0  0  0  0  0  0  0  0  0  0  0  0
    2.6923  -50.0268  -23.8480 C   0  0  0  0  0  0  0  0  0  0  0  0
    3.6642  -50.6765  -23.1367 C   0  0  0  0  0  0  0  0  0  0  0  0
    4.0917  -51.9647  -24.1817 S   0  0  0  0  0  0  0  0  0  0  0  0
 22 23  1  0  0  0
 23 24  1  0  0  0
 23 25  1  0  0  0
 23  9  1  0  0  0
  9 10  1  0  0  0
 10 11  1  0  0  0
 11 12  1  0  0  0
 12 13  2  0  0  0
 13 14  1  0  0  0
 14 15  1  0  0  0
 15 16  1  0  0  0
 16 17  2  0  0  0
 16 18  1  0  0  0
 18 19  1  0  0  0
 19 20  2  0  0  0
 18  7  1  0  0  0
  7  1  1  0  0  0
  1  2  1  0  0  0
  2  3  1  0  0  0
  3  4  1  0  0  0
  4 26  1  0  0  0
 26 27  1  0  0  0
 27 28  1  0  0  0
 28 32  1  0  0  0
 32 33  1  0  0  0
 33 34  1  0  0  0
 34 35  1  0  0  0
 35 36  1  0  0  0
 36 37  2  0  0  0
 36 38  1  0  0  0
 38 39  2  0  0  0
 39 40  1  0  0  0
 40 41  2  0  0  0
 41 42  1  0  0  0
 28 29  1  0  0  0
  4  5  1  0  0  0
  5  6  2  0  0  0
 19  9  1  0  0  0
  5  1  1  0  0  0
 15 11  2  0  0  0
 42 38  1  0  0  0
 14 21  1  0  0  0
  7  8  1  0  0  0
 29 30  1  0  0  0
 29 31  1  0  0  0
M  END
> <minimizedAffinity>
-7.77813

> <CNNscore>
0.6297738552

> <CNNaffinity>
7.5386400223

> <CNN_VS>
4.7476382256

> <CNNaffinity_variance>
0.0765210837

$$$$
[H]c1sc(C(=O)OC([H])([H])C([H])([H])O[C@]([H])(N([H])[H])C([H])([H])C([H])([H])N2C(=O)[C@@]([H])(N([H])N3C(=O)c4c(c([H])c([H])n4[H])C([H])([H])C([H])(C(C([H])([H])[H])(C([H])([H])[H])C([H])([H])[H])C3=O)C([H])([H])C2([H])[H])c([H])c1[H]


 42 45  0  0  0  0  0  0  0  0999 V2000
    4.0197  -51.3833  -23.2870 C   0  0  0  0  0  0  0  0  0  0  0  0
    5.0905  -50.7695  -24.2405 C   0  0  0  0  0  0  0  0  0  0  0  0
    5.5927  -49.6028  -23.3784 C   0  0  0  0  0  0  0  0  0  0  0  0
    5.8255  -50.3502  -22.1232 N   0  0  0  0  0  0  0  0  0  0  0  0
    4.7055  -51.1961  -21.9737 C   0  0  0  0  0  0  0  0  0  0  0  0
    4.3494  -51.7105  -20.8880 O   0  0  0  0  0  0  0  0  0  0  0  0
    2.8520  -50.6452  -23.4881 N   0  0  0  0  0  0  0  0  0  0  0  0
    2.8403  -49.6789  -23.1528 H   0  0  0  0  0  0  0  0  0  0  0  0
   -0.0924  -52.5371  -25.0195 C   0  0  0  0  0  0  0  0  0  0  0  0
    0.1340  -53.7780  -24.1725 C   0  0  0  0  0  0  0  0  0  0  0  0
   -0.3724  -53.5612  -22.7929 C   0  0  0  0  0  0  0  0  0  0  0  0
   -1.2760  -54.3237  -22.0894 C   0  0  0  0  0  0  0  0  0  0  0  0
   -1.4232  -53.7254  -20.8528 C   0  0  0  0  0  0  0  0  0  0  0  0
   -0.6403  -52.6232  -20.7772 N   0  0  0  0  0  0  0  0  0  0  0  0
    0.0058  -52.5170  -21.9619 C   0  0  0  0  0  0  0  0  0  0  0  0
    0.9534  -51.4299  -22.2483 C   0  0  0  0  0  0  0  0  0  0  0  0
    1.2194  -50.6090  -21.3299 O   0  0  0  0  0  0  0  0  0  0  0  0
    1.6262  -51.2070  -23.5101 N   0  0  0  0  0  0  0  0  0  0  0  0
    1.0387  -51.5754  -24.7779 C   0  0  0  0  0  0  0  0  0  0  0  0
    1.5657  -51.0021  -25.7604 O   0  0  0  0  0  0  0  0  0  0  0  0
   -0.5355  -51.9634  -19.9723 H   0  0  0  0  0  0  0  0  0  0  0  0
    1.1696  -52.3519  -27.1751 C   0  0  0  0  0  0  0  0  0  0  0  0
   -0.0738  -52.8756  -26.4894 C   0  0  0  0  0  0  0  0  0  0  0  0
   -0.0592  -54.3846  -26.6999 C   0  0  0  0  0  0  0  0  0  0  0  0
   -1.3338  -52.3327  -27.1215 C   0  0  0  0  0  0  0  0  0  0  0  0
    7.0219  -50.1872  -21.2918 C   0  0  0  0  0  0  0  0  0  0  0  0
    7.0097  -48.8008  -20.6425 C   0  0  0  0  0  0  0  0  0  0  0  0
    5.8343  -48.6777  -19.6905 C   0  0  0  0  0  0  0  0  0  0  0  0
    6.4171  -48.1337  -18.4524 N   0  0  0  0  0  0  0  0  0  0  0  0
    6.8695  -48.9140  -17.8996 H   0  0  0  0  0  0  0  0  0  0  0  0
    7.1003  -47.3658  -18.6591 H   0  0  0  0  0  0  0  0  0  0  0  0
    5.0058  -47.7031  -20.1706 O   0  0  0  0  0  0  0  0  0  0  0  0
    3.6727  -47.9829  -20.1803 C   0  0  0  0  0  0  0  0  0  0  0  0
    2.9842  -47.5051  -21.3995 C   0  0  0  0  0  0  0  0  0  0  0  0
    3.7798  -46.9636  -22.4110 O   0  0  0  0  0  0  0  0  0  0  0  0
    3.3875  -45.8659  -23.1648 C   0  0  0  0  0  0  0  0  0  0  0  0
    3.3056  -44.7603  -22.5992 O   0  0  0  0  0  0  0  0  0  0  0  0
    3.0889  -46.0535  -24.5808 C   0  0  0  0  0  0  0  0  0  0  0  0
    2.3095  -45.2856  -25.3997 C   0  0  0  0  0  0  0  0  0  0  0  0
    2.1949  -45.6642  -26.6752 C   0  0  0  0  0  0  0  0  0  0  0  0
    2.8642  -46.7910  -27.0691 C   0  0  0  0  0  0  0  0  0  0  0  0
    3.6397  -47.2871  -25.6246 S   0  0  0  0  0  0  0  0  0  0  0  0
 22 23  1  0  0  0
 23 24  1  0  0  0
 23 25  1  0  0  0
 23  9  1  0  0  0
  9 10  1  0  0  0
 10 11  1  0  0  0
 11 12  1  0  0  0
 12 13  2  0  0  0
 13 14  1  0  0  0
 14 15  1  0  0  0
 15 16  1  0  0  0
 16 17  2  0  0  0
 16 18  1  0  0  0
 18 19  1  0  0  0
 19 20  2  0  0  0
 18  7  1  0  0  0
  7  1  1  0  0  0
  1  2  1  0  0  0
  2  3  1  0  0  0
  3  4  1  0  0  0
  4 26  1  0  0  0
 26 27  1  0  0  0
 27 28  1  0  0  0
 28 32  1  0  0  0
 32 33  1  0  0  0
 33 34  1  0  0  0
 34 35  1  0  0  0
 35 36  1  0  0  0
 36 37  2  0  0  0
 36 38  1  0  0  0
 38 39  2  0  0  0
 39 40  1  0  0  0
 40 41  2  0  0  0
 41 42  1  0  0  0
 28 29  1  0  0  0
  4  5  1  0  0  0
  5  6  2  0  0  0
 19  9  1  0  0  0
  5  1  1  0  0  0
 15 11  2  0  0  0
 42 38  1  0  0  0
 14 21  1  0  0  0
  7  8  1  0  0  0
 29 30  1  0  0  0
 29 31  1  0  0  0
M  END
> <minimizedAffinity>
-7.14782

> <CNNscore>
0.5397734046

> <CNNaffinity>
7.1550369263

> <CNN_VS>
3.8620986938

> <CNNaffinity_variance>
0.1591551453

$$$$
[H]c1sc(C(=O)OC([H])([H])C([H])([H])O[C@]([H])(N([H])[H])C([H])([H])C([H])([H])N2C(=O)[C@@]([H])(N([H])N3C(=O)c4c(c([H])c([H])n4[H])C([H])([H])C([H])(C(C([H])([H])[H])(C([H])([H])[H])C([H])([H])[H])C3=O)C([H])([H])C2([H])[H])c([H])c1[H]


 42 45  0  0  0  0  0  0  0  0999 V2000
    0.4651  -51.7778  -22.3725 C   0  0  0  0  0  0  0  0  0  0  0  0
    1.2705  -51.1918  -23.5726 C   0  0  0  0  0  0  0  0  0  0  0  0
    1.5204  -52.4683  -24.3880 C   0  0  0  0  0  0  0  0  0  0  0  0
    0.1355  -52.9883  -24.3995 N   0  0  0  0  0  0  0  0  0  0  0  0
   -0.3462  -52.8095  -23.0849 C   0  0  0  0  0  0  0  0  0  0  0  0
   -1.3178  -53.4336  -22.5981 O   0  0  0  0  0  0  0  0  0  0  0  0
    1.4126  -52.2522  -21.4637 N   0  0  0  0  0  0  0  0  0  0  0  0
    1.8510  -53.1541  -21.6658 H   0  0  0  0  0  0  0  0  0  0  0  0
    2.0829  -50.2336  -18.2904 C   0  0  0  0  0  0  0  0  0  0  0  0
    0.6314  -49.8145  -18.1294 C   0  0  0  0  0  0  0  0  0  0  0  0
   -0.1708  -50.9342  -17.5728 C   0  0  0  0  0  0  0  0  0  0  0  0
   -0.9677  -50.9336  -16.4513 C   0  0  0  0  0  0  0  0  0  0  0  0
   -1.5090  -52.2006  -16.3479 C   0  0  0  0  0  0  0  0  0  0  0  0
   -1.0697  -52.9750  -17.3681 N   0  0  0  0  0  0  0  0  0  0  0  0
   -0.2499  -52.2055  -18.1219 C   0  0  0  0  0  0  0  0  0  0  0  0
    0.4182  -52.7132  -19.3291 C   0  0  0  0  0  0  0  0  0  0  0  0
    0.1616  -53.8877  -19.7073 O   0  0  0  0  0  0  0  0  0  0  0  0
    1.3618  -51.9784  -20.1442 N   0  0  0  0  0  0  0  0  0  0  0  0
    2.2321  -50.9625  -19.5977 C   0  0  0  0  0  0  0  0  0  0  0  0
    3.2101  -50.6911  -20.3336 O   0  0  0  0  0  0  0  0  0  0  0  0
   -1.3022  -53.9764  -17.5610 H   0  0  0  0  0  0  0  0  0  0  0  0
    2.6635  -48.1378  -19.5331 C   0  0  0  0  0  0  0  0  0  0  0  0
    2.9889  -49.0291  -18.3541 C   0  0  0  0  0  0  0  0  0  0  0  0
    2.8218  -48.1567  -17.1160 C   0  0  0  0  0  0  0  0  0  0  0  0
    4.4207  -49.5089  -18.3920 C   0  0  0  0  0  0  0  0  0  0  0  0
   -0.5163  -53.5342  -25.5938 C   0  0  0  0  0  0  0  0  0  0  0  0
   -0.5172  -52.4801  -26.7041 C   0  0  0  0  0  0  0  0  0  0  0  0
   -0.1669  -53.1196  -28.0350 C   0  0  0  0  0  0  0  0  0  0  0  0
   -1.2251  -52.6656  -28.9529 N   0  0  0  0  0  0  0  0  0  0  0  0
   -2.0905  -53.2591  -28.8192 H   0  0  0  0  0  0  0  0  0  0  0  0
   -1.4351  -51.6474  -28.8172 H   0  0  0  0  0  0  0  0  0  0  0  0
    0.9877  -52.5447  -28.4857 O   0  0  0  0  0  0  0  0  0  0  0  0
    2.1541  -53.1464  -28.1207 C   0  0  0  0  0  0  0  0  0  0  0  0
    3.1333  -52.2104  -27.5261 C   0  0  0  0  0  0  0  0  0  0  0  0
    2.6665  -50.9469  -27.1584 O   0  0  0  0  0  0  0  0  0  0  0  0
    3.5165  -49.8761  -26.9176 C   0  0  0  0  0  0  0  0  0  0  0  0
    3.8965  -49.1945  -27.8871 O   0  0  0  0  0  0  0  0  0  0  0  0
    3.9267  -49.5964  -25.5454 C   0  0  0  0  0  0  0  0  0  0  0  0
    4.7124  -50.3479  -24.7174 C   0  0  0  0  0  0  0  0  0  0  0  0
    4.9535  -49.8697  -23.4940 C   0  0  0  0  0  0  0  0  0  0  0  0
    4.3975  -48.6652  -23.1585 C   0  0  0  0  0  0  0  0  0  0  0  0
    3.5472  -48.2383  -24.5829 S   0  0  0  0  0  0  0  0  0  0  0  0
 22 23  1  0  0  0
 23 24  1  0  0  0
 23 25  1  0  0  0
 23  9  1  0  0  0
  9 10  1  0  0  0
 10 11  1  0  0  0
 11 12  1  0  0  0
 12 13  2  0  0  0
 13 14  1  0  0  0
 14 15  1  0  0  0
 15 16  1  0  0  0
 16 17  2  0  0  0
 16 18  1  0  0  0
 18 19  1  0  0  0
 19 20  2  0  0  0
 18  7  1  0  0  0
  7  1  1  0  0  0
  1  2  1  0  0  0
  2  3  1  0  0  0
  3  4  1  0  0  0
  4 26  1  0  0  0
 26 27  1  0  0  0
 27 28  1  0  0  0
 28 32  1  0  0  0
 32 33  1  0  0  0
 33 34  1  0  0  0
 34 35  1  0  0  0
 35 36  1  0  0  0
 36 37  2  0  0  0
 36 38  1  0  0  0
 38 39  2  0  0  0
 39 40  1  0  0  0
 40 41  2  0  0  0
 41 42  1  0  0  0
 28 29  1  0  0  0
  4  5  1  0  0  0
  5  6  2  0  0  0
 19  9  1  0  0  0
  5  1  1  0  0  0
 15 11  2  0  0  0
 42 38  1  0  0  0
 14 21  1  0  0  0
  7  8  1  0  0  0
 29 30  1  0  0  0
 29 31  1  0  0  0
M  END
> <minimizedAffinity>
-7.09272

> <CNNscore>
0.3217337132

> <CNNaffinity>
7.1488013268

> <CNN_VS>
2.3000104427

> <CNNaffinity_variance>
0.0713909417

$$$$
[H]c1sc(C(=O)OC([H])([H])C([H])([H])O[C@]([H])(N([H])[H])C([H])([H])C([H])([H])N2C(=O)[C@@]([H])(N([H])N3C(=O)c4c(c([H])c([H])n4[H])C([H])([H])C([H])(C(C([H])([H])[H])(C([H])([H])[H])C([H])([H])[H])C3=O)C([H])([H])C2([H])[H])c([H])c1[H]


 42 45  0  0  0  0  0  0  0  0999 V2000
    3.7430  -51.0377  -23.3508 C   0  0  0  0  0  0  0  0  0  0  0  0
    4.6414  -50.2821  -24.3776 C   0  0  0  0  0  0  0  0  0  0  0  0
    5.1123  -49.1011  -23.5173 C   0  0  0  0  0  0  0  0  0  0  0  0
    5.5487  -49.8647  -22.3278 N   0  0  0  0  0  0  0  0  0  0  0  0
    4.5405  -50.8273  -22.1058 C   0  0  0  0  0  0  0  0  0  0  0  0
    4.3531  -51.4145  -21.0148 O   0  0  0  0  0  0  0  0  0  0  0  0
    2.4929  -50.4183  -23.3991 N   0  0  0  0  0  0  0  0  0  0  0  0
    2.3910  -49.5217  -22.9174 H   0  0  0  0  0  0  0  0  0  0  0  0
   -0.1654  -52.6109  -25.0483 C   0  0  0  0  0  0  0  0  0  0  0  0
    0.1587  -53.8232  -24.1918 C   0  0  0  0  0  0  0  0  0  0  0  0
   -0.4241  -53.6672  -22.8343 C   0  0  0  0  0  0  0  0  0  0  0  0
   -1.2681  -54.5252  -22.1678 C   0  0  0  0  0  0  0  0  0  0  0  0
   -1.5294  -53.9507  -20.9387 C   0  0  0  0  0  0  0  0  0  0  0  0
   -0.8736  -52.7708  -20.8320 N   0  0  0  0  0  0  0  0  0  0  0  0
   -0.1949  -52.5913  -21.9894 C   0  0  0  0  0  0  0  0  0  0  0  0
    0.6409  -51.4075  -22.2375 C   0  0  0  0  0  0  0  0  0  0  0  0
    0.7791  -50.5660  -21.3096 O   0  0  0  0  0  0  0  0  0  0  0  0
    1.3368  -51.1089  -23.4709 N   0  0  0  0  0  0  0  0  0  0  0  0
    0.8447  -51.5338  -24.7614 C   0  0  0  0  0  0  0  0  0  0  0  0
    1.3464  -50.9035  -25.7219 O   0  0  0  0  0  0  0  0  0  0  0  0
   -0.8735  -52.1065  -20.0240 H   0  0  0  0  0  0  0  0  0  0  0  0
    1.2127  -52.3721  -27.1261 C   0  0  0  0  0  0  0  0  0  0  0  0
   -0.0504  -52.9401  -26.5160 C   0  0  0  0  0  0  0  0  0  0  0  0
    0.0262  -54.4466  -26.7311 C   0  0  0  0  0  0  0  0  0  0  0  0
   -1.2887  -52.4350  -27.2182 C   0  0  0  0  0  0  0  0  0  0  0  0
    6.8033  -49.6080  -21.6143 C   0  0  0  0  0  0  0  0  0  0  0  0
    6.6720  -48.3227  -20.7929 C   0  0  0  0  0  0  0  0  0  0  0  0
    6.2385  -48.6479  -19.3754 C   0  0  0  0  0  0  0  0  0  0  0  0
    7.4368  -48.3989  -18.5564 N   0  0  0  0  0  0  0  0  0  0  0  0
    8.0891  -49.2293  -18.6191 H   0  0  0  0  0  0  0  0  0  0  0  0
    7.9172  -47.5128  -18.8449 H   0  0  0  0  0  0  0  0  0  0  0  0
    5.3238  -47.7088  -18.9905 O   0  0  0  0  0  0  0  0  0  0  0  0
    4.0588  -47.8516  -19.4756 C   0  0  0  0  0  0  0  0  0  0  0  0
    3.0910  -48.3134  -18.4565 C   0  0  0  0  0  0  0  0  0  0  0  0
    2.4032  -49.4994  -18.7207 O   0  0  0  0  0  0  0  0  0  0  0  0
    2.4382  -50.5914  -17.8643 C   0  0  0  0  0  0  0  0  0  0  0  0
    3.4992  -51.2353  -17.7719 O   0  0  0  0  0  0  0  0  0  0  0  0
    1.2359  -50.9367  -17.1127 C   0  0  0  0  0  0  0  0  0  0  0  0
    0.0100  -51.3123  -17.5855 C   0  0  0  0  0  0  0  0  0  0  0  0
   -0.9398  -51.5870  -16.6878 C   0  0  0  0  0  0  0  0  0  0  0  0
   -0.6178  -51.4725  -15.3627 C   0  0  0  0  0  0  0  0  0  0  0  0
    1.0215  -50.9790  -15.4195 S   0  0  0  0  0  0  0  0  0  0  0  0
 22 23  1  0  0  0
 23 24  1  0  0  0
 23 25  1  0  0  0
 23  9  1  0  0  0
  9 10  1  0  0  0
 10 11  1  0  0  0
 11 12  1  0  0  0
 12 13  2  0  0  0
 13 14  1  0  0  0
 14 15  1  0  0  0
 15 16  1  0  0  0
 16 17  2  0  0  0
 16 18  1  0  0  0
 18 19  1  0  0  0
 19 20  2  0  0  0
 18  7  1  0  0  0
  7  1  1  0  0  0
  1  2  1  0  0  0
  2  3  1  0  0  0
  3  4  1  0  0  0
  4 26  1  0  0  0
 26 27  1  0  0  0
 27 28  1  0  0  0
 28 32  1  0  0  0
 32 33  1  0  0  0
 33 34  1  0  0  0
 34 35  1  0  0  0
 35 36  1  0  0  0
 36 37  2  0  0  0
 36 38  1  0  0  0
 38 39  2  0  0  0
 39 40  1  0  0  0
 40 41  2  0  0  0
 41 42  1  0  0  0
 28 29  1  0  0  0
  4  5  1  0  0  0
  5  6  2  0  0  0
 19  9  1  0  0  0
  5  1  1  0  0  0
 15 11  2  0  0  0
 42 38  1  0  0  0
 14 21  1  0  0  0
  7  8  1  0  0  0
 29 30  1  0  0  0
 29 31  1  0  0  0
M  END
> <minimizedAffinity>
-7.22474

> <CNNscore>
0.2426483482

> <CNNaffinity>
6.8185796738

> <CNN_VS>
1.6545170546

> <CNNaffinity_variance>
0.1682712138

$$$$
[H]c1sc(C(=O)OC([H])([H])C([H])([H])O[C@]([H])(N([H])[H])C([H])([H])C([H])([H])N2C(=O)[C@@]([H])(N([H])N3C(=O)c4c(c([H])c([H])n4[H])C([H])([H])C([H])(C(C([H])([H])[H])(C([H])([H])[H])C([H])([H])[H])C3=O)C([H])([H])C2([H])[H])c([H])c1[H]


 42 45  0  0  0  0  0  0  0  0999 V2000
    3.0823  -48.9224  -19.7316 C   0  0  0  0  0  0  0  0  0  0  0  0
    3.9890  -47.6891  -20.0302 C   0  0  0  0  0  0  0  0  0  0  0  0
    5.1924  -48.3821  -20.6847 C   0  0  0  0  0  0  0  0  0  0  0  0
    4.4543  -49.2156  -21.6588 N   0  0  0  0  0  0  0  0  0  0  0  0
    3.3559  -49.7448  -20.9477 C   0  0  0  0  0  0  0  0  0  0  0  0
    2.7107  -50.7601  -21.2988 O   0  0  0  0  0  0  0  0  0  0  0  0
    3.5265  -49.4456  -18.5159 N   0  0  0  0  0  0  0  0  0  0  0  0
    4.3200  -50.0905  -18.5408 H   0  0  0  0  0  0  0  0  0  0  0  0
    1.7316  -48.6103  -15.2487 C   0  0  0  0  0  0  0  0  0  0  0  0
    0.3698  -48.4862  -15.9110 C   0  0  0  0  0  0  0  0  0  0  0  0
   -0.1926  -49.8322  -16.1916 C   0  0  0  0  0  0  0  0  0  0  0  0
   -1.4100  -50.3426  -15.8038 C   0  0  0  0  0  0  0  0  0  0  0  0
   -1.4812  -51.6271  -16.3079 C   0  0  0  0  0  0  0  0  0  0  0  0
   -0.3486  -51.9184  -16.9905 N   0  0  0  0  0  0  0  0  0  0  0  0
    0.4446  -50.8236  -16.9231 C   0  0  0  0  0  0  0  0  0  0  0  0
    1.7695  -50.7699  -17.5582 C   0  0  0  0  0  0  0  0  0  0  0  0
    2.1459  -51.7576  -18.2445 O   0  0  0  0  0  0  0  0  0  0  0  0
    2.7035  -49.6677  -17.4709 N   0  0  0  0  0  0  0  0  0  0  0  0
    2.7724  -48.7992  -16.3180 C   0  0  0  0  0  0  0  0  0  0  0  0
    3.8414  -48.1485  -16.2436 O   0  0  0  0  0  0  0  0  0  0  0  0
   -0.1066  -52.8086  -17.4837 H   0  0  0  0  0  0  0  0  0  0  0  0
    2.3444  -46.1901  -15.4503 C   0  0  0  0  0  0  0  0  0  0  0  0
    2.0889  -47.3460  -14.5074 C   0  0  0  0  0  0  0  0  0  0  0  0
    0.9431  -46.9011  -13.6069 C   0  0  0  0  0  0  0  0  0  0  0  0
    3.2848  -47.6281  -13.6288 C   0  0  0  0  0  0  0  0  0  0  0  0
    4.8548  -49.3723  -23.0603 C   0  0  0  0  0  0  0  0  0  0  0  0
    5.6858  -50.6486  -23.2162 C   0  0  0  0  0  0  0  0  0  0  0  0
    5.1151  -51.5142  -24.3244 C   0  0  0  0  0  0  0  0  0  0  0  0
    6.2041  -52.4456  -24.6636 N   0  0  0  0  0  0  0  0  0  0  0  0
    6.8963  -51.9654  -25.3035 H   0  0  0  0  0  0  0  0  0  0  0  0
    6.6726  -52.8133  -23.8007 H   0  0  0  0  0  0  0  0  0  0  0  0
    4.1222  -52.2835  -23.7867 O   0  0  0  0  0  0  0  0  0  0  0  0
    3.2146  -52.8076  -24.6569 C   0  0  0  0  0  0  0  0  0  0  0  0
    1.8285  -52.3629  -24.3937 C   0  0  0  0  0  0  0  0  0  0  0  0
    0.7987  -53.1049  -24.9755 O   0  0  0  0  0  0  0  0  0  0  0  0
   -0.2233  -53.6782  -24.2312 C   0  0  0  0  0  0  0  0  0  0  0  0
   -1.0147  -54.4460  -24.8084 O   0  0  0  0  0  0  0  0  0  0  0  0
   -0.3263  -53.3580  -22.8112 C   0  0  0  0  0  0  0  0  0  0  0  0
   -0.4783  -52.1359  -22.2188 C   0  0  0  0  0  0  0  0  0  0  0  0
   -0.5558  -52.1018  -20.8860 C   0  0  0  0  0  0  0  0  0  0  0  0
   -0.4772  -53.2898  -20.2115 C   0  0  0  0  0  0  0  0  0  0  0  0
   -0.2959  -54.4265  -21.4800 S   0  0  0  0  0  0  0  0  0  0  0  0
 22 23  1  0  0  0
 23 24  1  0  0  0
 23 25  1  0  0  0
 23  9  1  0  0  0
  9 10  1  0  0  0
 10 11  1  0  0  0
 11 12  1  0  0  0
 12 13  2  0  0  0
 13 14  1  0  0  0
 14 15  1  0  0  0
 15 16  1  0  0  0
 16 17  2  0  0  0
 16 18  1  0  0  0
 18 19  1  0  0  0
 19 20  2  0  0  0
 18  7  1  0  0  0
  7  1  1  0  0  0
  1  2  1  0  0  0
  2  3  1  0  0  0
  3  4  1  0  0  0
  4 26  1  0  0  0
 26 27  1  0  0  0
 27 28  1  0  0  0
 28 32  1  0  0  0
 32 33  1  0  0  0
 33 34  1  0  0  0
 34 35  1  0  0  0
 35 36  1  0  0  0
 36 37  2  0  0  0
 36 38  1  0  0  0
 38 39  2  0  0  0
 39 40  1  0  0  0
 40 41  2  0  0  0
 41 42  1  0  0  0
 28 29  1  0  0  0
  4  5  1  0  0  0
  5  6  2  0  0  0
 19  9  1  0  0  0
  5  1  1  0  0  0
 15 11  2  0  0  0
 42 38  1  0  0  0
 14 21  1  0  0  0
  7  8  1  0  0  0
 29 30  1  0  0  0
 29 31  1  0  0  0
M  END
> <minimizedAffinity>
-6.05204

> <CNNscore>
0.2308437824

> <CNNaffinity>
6.6162500381

> <CNN_VS>
1.5273201466

> <CNNaffinity_variance>
0.1225927919

$$$$
[H]c1sc(C(=O)OC([H])([H])C([H])([H])O[C@]([H])(N([H])[H])C([H])([H])C([H])([H])N2C(=O)[C@@]([H])(N([H])N3C(=O)c4c(c([H])c([H])n4[H])C([H])([H])C([H])(C(C([H])([H])[H])(C([H])([H])[H])C([H])([H])[H])C3=O)C([H])([H])C2([H])[H])c([H])c1[H]


 42 45  0  0  0  0  0  0  0  0999 V2000
    2.8709  -47.8643  -20.4955 C   0  0  0  0  0  0  0  0  0  0  0  0
    3.8859  -46.7120  -20.2227 C   0  0  0  0  0  0  0  0  0  0  0  0
    4.8698  -46.9297  -21.3809 C   0  0  0  0  0  0  0  0  0  0  0  0
    3.8858  -47.0229  -22.4816 N   0  0  0  0  0  0  0  0  0  0  0  0
    2.8427  -47.8359  -21.9883 C   0  0  0  0  0  0  0  0  0  0  0  0
    2.0173  -48.4410  -22.7114 O   0  0  0  0  0  0  0  0  0  0  0  0
    3.4140  -49.0076  -19.9068 N   0  0  0  0  0  0  0  0  0  0  0  0
    4.1733  -48.8773  -19.2338 H   0  0  0  0  0  0  0  0  0  0  0  0
    2.0180  -52.2205  -21.4308 C   0  0  0  0  0  0  0  0  0  0  0  0
    2.3036  -51.7868  -22.8586 C   0  0  0  0  0  0  0  0  0  0  0  0
    3.7478  -51.9466  -23.1678 C   0  0  0  0  0  0  0  0  0  0  0  0
    4.3232  -52.6477  -24.2023 C   0  0  0  0  0  0  0  0  0  0  0  0
    5.6905  -52.4963  -24.0730 C   0  0  0  0  0  0  0  0  0  0  0  0
    5.9696  -51.7266  -22.9945 N   0  0  0  0  0  0  0  0  0  0  0  0
    4.7844  -51.3867  -22.4357 C   0  0  0  0  0  0  0  0  0  0  0  0
    4.6922  -50.5446  -21.2342 C   0  0  0  0  0  0  0  0  0  0  0  0
    5.7554  -50.0707  -20.7510 O   0  0  0  0  0  0  0  0  0  0  0  0
    3.4717  -50.1982  -20.5376 N   0  0  0  0  0  0  0  0  0  0  0  0
    2.3210  -51.0718  -20.5082 C   0  0  0  0  0  0  0  0  0  0  0  0
    1.5099  -50.8021  -19.5911 O   0  0  0  0  0  0  0  0  0  0  0  0
    6.9092  -51.4354  -22.6387 H   0  0  0  0  0  0  0  0  0  0  0  0
   -0.3165  -51.3213  -21.3070 C   0  0  0  0  0  0  0  0  0  0  0  0
    0.5582  -52.5550  -21.2497 C   0  0  0  0  0  0  0  0  0  0  0  0
    0.0658  -53.4648  -22.3684 C   0  0  0  0  0  0  0  0  0  0  0  0
    0.3958  -53.2976  -19.9444 C   0  0  0  0  0  0  0  0  0  0  0  0
    4.0471  -46.3485  -23.7733 C   0  0  0  0  0  0  0  0  0  0  0  0
    5.4104  -46.7057  -24.3711 C   0  0  0  0  0  0  0  0  0  0  0  0
    5.2628  -47.8302  -25.3795 C   0  0  0  0  0  0  0  0  0  0  0  0
    5.8810  -48.9960  -24.7259 N   0  0  0  0  0  0  0  0  0  0  0  0
    6.9323  -48.9477  -24.8331 H   0  0  0  0  0  0  0  0  0  0  0  0
    5.6021  -49.0588  -23.7172 H   0  0  0  0  0  0  0  0  0  0  0  0
    3.9332  -48.1260  -25.4863 O   0  0  0  0  0  0  0  0  0  0  0  0
    3.5362  -48.7578  -26.6261 C   0  0  0  0  0  0  0  0  0  0  0  0
    2.9191  -50.0790  -26.3770 C   0  0  0  0  0  0  0  0  0  0  0  0
    3.0993  -51.0617  -27.3524 O   0  0  0  0  0  0  0  0  0  0  0  0
    2.4553  -52.2906  -27.3044 C   0  0  0  0  0  0  0  0  0  0  0  0
    3.1407  -53.3215  -27.4325 O   0  0  0  0  0  0  0  0  0  0  0  0
    1.0098  -52.3217  -27.1071 C   0  0  0  0  0  0  0  0  0  0  0  0
    0.2901  -51.9752  -25.9983 C   0  0  0  0  0  0  0  0  0  0  0  0
   -1.0391  -52.0852  -26.0662 C   0  0  0  0  0  0  0  0  0  0  0  0
   -1.5831  -52.5362  -27.2381 C   0  0  0  0  0  0  0  0  0  0  0  0
   -0.2001  -52.7932  -28.2156 S   0  0  0  0  0  0  0  0  0  0  0  0
 22 23  1  0  0  0
 23 24  1  0  0  0
 23 25  1  0  0  0
 23  9  1  0  0  0
  9 10  1  0  0  0
 10 11  1  0  0  0
 11 12  1  0  0  0
 12 13  2  0  0  0
 13 14  1  0  0  0
 14 15  1  0  0  0
 15 16  1  0  0  0
 16 17  2  0  0  0
 16 18  1  0  0  0
 18 19  1  0  0  0
 19 20  2  0  0  0
 18  7  1  0  0  0
  7  1  1  0  0  0
  1  2  1  0  0  0
  2  3  1  0  0  0
  3  4  1  0  0  0
  4 26  1  0  0  0
 26 27  1  0  0  0
 27 28  1  0  0  0
 28 32  1  0  0  0
 32 33  1  0  0  0
 33 34  1  0  0  0
 34 35  1  0  0  0
 35 36  1  0  0  0
 36 37  2  0  0  0
 36 38  1  0  0  0
 38 39  2  0  0  0
 39 40  1  0  0  0
 40 41  2  0  0  0
 41 42  1  0  0  0
 28 29  1  0  0  0
  4  5  1  0  0  0
  5  6  2  0  0  0
 19  9  1  0  0  0
  5  1  1  0  0  0
 15 11  2  0  0  0
 42 38  1  0  0  0
 14 21  1  0  0  0
  7  8  1  0  0  0
 29 30  1  0  0  0
 29 31  1  0  0  0
M  END
> <minimizedAffinity>
-7.00505

> <CNNscore>
0.2232988626

> <CNNaffinity>
6.4470796585

> <CNN_VS>
1.4396255016

> <CNNaffinity_variance>
0.6768978834

$$$$
[H]c1sc(C(=O)OC([H])([H])C([H])([H])O[C@]([H])(N([H])[H])C([H])([H])C([H])([H])N2C(=O)[C@@]([H])(N([H])N3C(=O)c4c(c([H])c([H])n4[H])C([H])([H])C([H])(C(C([H])([H])[H])(C([H])([H])[H])C([H])([H])[H])C3=O)C([H])([H])C2([H])[H])c([H])c1[H]


 42 45  0  0  0  0  0  0  0  0999 V2000
    3.8385  -49.8446  -23.9362 C   0  0  0  0  0  0  0  0  0  0  0  0
    5.1769  -49.1776  -23.4931 C   0  0  0  0  0  0  0  0  0  0  0  0
    6.0391  -49.4340  -24.7371 C   0  0  0  0  0  0  0  0  0  0  0  0
    5.0861  -48.9506  -25.7601 N   0  0  0  0  0  0  0  0  0  0  0  0
    3.8296  -49.4707  -25.3819 C   0  0  0  0  0  0  0  0  0  0  0  0
    2.8542  -49.5945  -26.1587 O   0  0  0  0  0  0  0  0  0  0  0  0
    3.9681  -51.2043  -23.6477 N   0  0  0  0  0  0  0  0  0  0  0  0
    4.8810  -51.6366  -23.8092 H   0  0  0  0  0  0  0  0  0  0  0  0
    0.6751  -52.8738  -22.6664 C   0  0  0  0  0  0  0  0  0  0  0  0
   -0.0910  -52.2807  -23.8367 C   0  0  0  0  0  0  0  0  0  0  0  0
    0.2237  -53.0184  -25.0871 C   0  0  0  0  0  0  0  0  0  0  0  0
   -0.6509  -53.6200  -25.9622 C   0  0  0  0  0  0  0  0  0  0  0  0
    0.1137  -54.1697  -26.9733 C   0  0  0  0  0  0  0  0  0  0  0  0
    1.4257  -53.9243  -26.7453 N   0  0  0  0  0  0  0  0  0  0  0  0
    1.5000  -53.2197  -25.5918 C   0  0  0  0  0  0  0  0  0  0  0  0
    2.7792  -52.7692  -25.0245 C   0  0  0  0  0  0  0  0  0  0  0  0
    3.8354  -52.9927  -25.6747 O   0  0  0  0  0  0  0  0  0  0  0  0
    2.9469  -52.0773  -23.7643 N   0  0  0  0  0  0  0  0  0  0  0  0
    2.0570  -52.2800  -22.6440 C   0  0  0  0  0  0  0  0  0  0  0  0
    2.5354  -51.9020  -21.5487 O   0  0  0  0  0  0  0  0  0  0  0  0
    2.2442  -54.2116  -27.3298 H   0  0  0  0  0  0  0  0  0  0  0  0
   -1.3642  -53.1084  -21.2312 C   0  0  0  0  0  0  0  0  0  0  0  0
    0.0219  -52.5137  -21.3551 C   0  0  0  0  0  0  0  0  0  0  0  0
    0.8179  -53.0687  -20.1804 C   0  0  0  0  0  0  0  0  0  0  0  0
   -0.0001  -51.0086  -21.2289 C   0  0  0  0  0  0  0  0  0  0  0  0
    5.4692  -48.0905  -26.8839 C   0  0  0  0  0  0  0  0  0  0  0  0
    5.1349  -46.6339  -26.5514 C   0  0  0  0  0  0  0  0  0  0  0  0
    3.8229  -46.2352  -27.2016 C   0  0  0  0  0  0  0  0  0  0  0  0
    3.6145  -47.2389  -28.2588 N   0  0  0  0  0  0  0  0  0  0  0  0
    4.1904  -46.9847  -29.1090 H   0  0  0  0  0  0  0  0  0  0  0  0
    3.8421  -48.2037  -27.9174 H   0  0  0  0  0  0  0  0  0  0  0  0
    2.8244  -46.4408  -26.2920 O   0  0  0  0  0  0  0  0  0  0  0  0
    2.0713  -45.3571  -25.9541 C   0  0  0  0  0  0  0  0  0  0  0  0
    2.3972  -44.8130  -24.6176 C   0  0  0  0  0  0  0  0  0  0  0  0
    2.2675  -45.6764  -23.5280 O   0  0  0  0  0  0  0  0  0  0  0  0
    3.3507  -46.0769  -22.7576 C   0  0  0  0  0  0  0  0  0  0  0  0
    4.4938  -45.7671  -23.1402 O   0  0  0  0  0  0  0  0  0  0  0  0
    3.1048  -46.8403  -21.5385 C   0  0  0  0  0  0  0  0  0  0  0  0
    2.1832  -47.8248  -21.3170 C   0  0  0  0  0  0  0  0  0  0  0  0
    2.1573  -48.3840  -20.1045 C   0  0  0  0  0  0  0  0  0  0  0  0
    3.0528  -47.9318  -19.1738 C   0  0  0  0  0  0  0  0  0  0  0  0
    3.9101  -46.7262  -20.0374 S   0  0  0  0  0  0  0  0  0  0  0  0
 22 23  1  0  0  0
 23 24  1  0  0  0
 23 25  1  0  0  0
 23  9  1  0  0  0
  9 10  1  0  0  0
 10 11  1  0  0  0
 11 12  1  0  0  0
 12 13  2  0  0  0
 13 14  1  0  0  0
 14 15  1  0  0  0
 15 16  1  0  0  0
 16 17  2  0  0  0
 16 18  1  0  0  0
 18 19  1  0  0  0
 19 20  2  0  0  0
 18  7  1  0  0  0
  7  1  1  0  0  0
  1  2  1  0  0  0
  2  3  1  0  0  0
  3  4  1  0  0  0
  4 26  1  0  0  0
 26 27  1  0  0  0
 27 28  1  0  0  0
 28 32  1  0  0  0
 32 33  1  0  0  0
 33 34  1  0  0  0
 34 35  1  0  0  0
 35 36  1  0  0  0
 36 37  2  0  0  0
 36 38  1  0  0  0
 38 39  2  0  0  0
 39 40  1  0  0  0
 40 41  2  0  0  0
 41 42  1  0  0  0
 28 29  1  0  0  0
  4  5  1  0  0  0
  5  6  2  0  0  0
 19  9  1  0  0  0
  5  1  1  0  0  0
 15 11  2  0  0  0
 42 38  1  0  0  0
 14 21  1  0  0  0
  7  8  1  0  0  0
 29 30  1  0  0  0
 29 31  1  0  0  0
M  END
> <minimizedAffinity>
-6.50702

> <CNNscore>
0.2185561657

> <CNNaffinity>
6.7417306900

> <CNN_VS>
1.4734468460

> <CNNaffinity_variance>
0.0553065464

$$$$
[H]c1sc(C(=O)OC([H])([H])C([H])([H])O[C@]([H])(N([H])[H])C([H])([H])C([H])([H])N2C(=O)[C@@]([H])(N([H])N3C(=O)c4c(c([H])c([H])n4[H])C([H])([H])C([H])(C(C([H])([H])[H])(C([H])([H])[H])C([H])([H])[H])C3=O)C([H])([H])C2([H])[H])c([H])c1[H]


 42 45  0  0  0  0  0  0  0  0999 V2000
    2.9585  -51.0898  -24.2463 C   0  0  0  0  0  0  0  0  0  0  0  0
    2.5796  -49.8681  -25.1387 C   0  0  0  0  0  0  0  0  0  0  0  0
    3.4926  -50.1147  -26.3479 C   0  0  0  0  0  0  0  0  0  0  0  0
    3.1605  -51.5376  -26.5790 N   0  0  0  0  0  0  0  0  0  0  0  0
    3.1384  -52.1331  -25.2995 C   0  0  0  0  0  0  0  0  0  0  0  0
    3.2535  -53.3635  -25.0916 O   0  0  0  0  0  0  0  0  0  0  0  0
    4.1040  -50.7155  -23.5417 N   0  0  0  0  0  0  0  0  0  0  0  0
    4.9296  -51.3129  -23.6303 H   0  0  0  0  0  0  0  0  0  0  0  0
    3.9735  -47.6577  -21.2553 C   0  0  0  0  0  0  0  0  0  0  0  0
    2.5368  -47.9108  -20.8309 C   0  0  0  0  0  0  0  0  0  0  0  0
    2.4801  -49.0027  -19.8251 C   0  0  0  0  0  0  0  0  0  0  0  0
    1.9147  -48.9748  -18.5712 C   0  0  0  0  0  0  0  0  0  0  0  0
    2.1092  -50.2267  -18.0197 C   0  0  0  0  0  0  0  0  0  0  0  0
    2.7743  -51.0180  -18.8943 N   0  0  0  0  0  0  0  0  0  0  0  0
    3.0044  -50.2746  -20.0019 C   0  0  0  0  0  0  0  0  0  0  0  0
    3.7096  -50.8078  -21.1765 C   0  0  0  0  0  0  0  0  0  0  0  0
    4.0506  -52.0211  -21.1715 O   0  0  0  0  0  0  0  0  0  0  0  0
    4.0568  -50.0583  -22.3650 N   0  0  0  0  0  0  0  0  0  0  0  0
    4.3382  -48.6412  -22.3334 C   0  0  0  0  0  0  0  0  0  0  0  0
    4.9592  -48.2307  -23.3421 O   0  0  0  0  0  0  0  0  0  0  0  0
    3.0666  -52.0141  -18.7655 H   0  0  0  0  0  0  0  0  0  0  0  0
    5.4735  -46.0960  -22.5142 C   0  0  0  0  0  0  0  0  0  0  0  0
    4.1265  -46.2795  -21.8492 C   0  0  0  0  0  0  0  0  0  0  0  0
    3.0895  -46.0388  -22.9394 C   0  0  0  0  0  0  0  0  0  0  0  0
    3.8959  -45.2602  -20.7585 C   0  0  0  0  0  0  0  0  0  0  0  0
    2.9015  -52.1052  -27.9056 C   0  0  0  0  0  0  0  0  0  0  0  0
    1.8917  -53.2496  -27.7851 C   0  0  0  0  0  0  0  0  0  0  0  0
    0.4913  -52.7473  -28.0846 C   0  0  0  0  0  0  0  0  0  0  0  0
    0.3918  -52.7844  -29.5533 N   0  0  0  0  0  0  0  0  0  0  0  0
    0.8590  -51.9282  -29.9630 H   0  0  0  0  0  0  0  0  0  0  0  0
    0.8045  -53.6671  -29.9402 H   0  0  0  0  0  0  0  0  0  0  0  0
   -0.3957  -53.6811  -27.6284 O   0  0  0  0  0  0  0  0  0  0  0  0
    0.1319  -54.7902  -27.0392 C   0  0  0  0  0  0  0  0  0  0  0  0
   -0.1075  -54.8468  -25.5805 C   0  0  0  0  0  0  0  0  0  0  0  0
   -1.0056  -53.9216  -25.0447 O   0  0  0  0  0  0  0  0  0  0  0  0
   -0.5943  -52.8237  -24.3013 C   0  0  0  0  0  0  0  0  0  0  0  0
   -0.3945  -51.7491  -24.8966 O   0  0  0  0  0  0  0  0  0  0  0  0
   -0.4142  -52.9750  -22.8611 C   0  0  0  0  0  0  0  0  0  0  0  0
    0.0622  -52.0662  -21.9585 C   0  0  0  0  0  0  0  0  0  0  0  0
    0.1263  -52.4430  -20.6789 C   0  0  0  0  0  0  0  0  0  0  0  0
   -0.2881  -53.7088  -20.3648 C   0  0  0  0  0  0  0  0  0  0  0  0
   -0.7590  -54.3348  -21.8881 S   0  0  0  0  0  0  0  0  0  0  0  0
 22 23  1  0  0  0
 23 24  1  0  0  0
 23 25  1  0  0  0
 23  9  1  0  0  0
  9 10  1  0  0  0
 10 11  1  0  0  0
 11 12  1  0  0  0
 12 13  2  0  0  0
 13 14  1  0  0  0
 14 15  1  0  0  0
 15 16  1  0  0  0
 16 17  2  0  0  0
 16 18  1  0  0  0
 18 19  1  0  0  0
 19 20  2  0  0  0
 18  7  1  0  0  0
  7  1  1  0  0  0
  1  2  1  0  0  0
  2  3  1  0  0  0
  3  4  1  0  0  0
  4 26  1  0  0  0
 26 27  1  0  0  0
 27 28  1  0  0  0
 28 32  1  0  0  0
 32 33  1  0  0  0
 33 34  1  0  0  0
 34 35  1  0  0  0
 35 36  1  0  0  0
 36 37  2  0  0  0
 36 38  1  0  0  0
 38 39  2  0  0  0
 39 40  1  0  0  0
 40 41  2  0  0  0
 41 42  1  0  0  0
 28 29  1  0  0  0
  4  5  1  0  0  0
  5  6  2  0  0  0
 19  9  1  0  0  0
  5  1  1  0  0  0
 15 11  2  0  0  0
 42 38  1  0  0  0
 14 21  1  0  0  0
  7  8  1  0  0  0
 29 30  1  0  0  0
 29 31  1  0  0  0
M  END
> <minimizedAffinity>
-6.78863

> <CNNscore>
0.1820416749

> <CNNaffinity>
6.8210539818

> <CNN_VS>
1.2417161465

> <CNNaffinity_variance>
0.3121477067

$$$$
[H]c1sc(C(=O)OC([H])([H])C([H])([H])O[C@]([H])(N([H])[H])C([H])([H])C([H])([H])N2C(=O)[C@@]([H])(N([H])N3C(=O)c4c(c([H])c([H])n4[H])C([H])([H])C([H])(C(C([H])([H])[H])(C([H])([H])[H])C([H])([H])[H])C3=O)C([H])([H])C2([H])[H])c([H])c1[H]


 42 45  0  0  0  0  0  0  0  0999 V2000
    3.3183  -52.1191  -25.1000 C   0  0  0  0  0  0  0  0  0  0  0  0
    2.0389  -51.3259  -24.6921 C   0  0  0  0  0  0  0  0  0  0  0  0
    1.6147  -50.7640  -26.0563 C   0  0  0  0  0  0  0  0  0  0  0  0
    1.6871  -52.0194  -26.8356 N   0  0  0  0  0  0  0  0  0  0  0  0
    2.8812  -52.6505  -26.4254 C   0  0  0  0  0  0  0  0  0  0  0  0
    3.4784  -53.5303  -27.0885 O   0  0  0  0  0  0  0  0  0  0  0  0
    4.3614  -51.1915  -25.1167 N   0  0  0  0  0  0  0  0  0  0  0  0
    5.2572  -51.4948  -25.5064 H   0  0  0  0  0  0  0  0  0  0  0  0
    4.1328  -47.6475  -23.7088 C   0  0  0  0  0  0  0  0  0  0  0  0
    2.9975  -47.9898  -22.7589 C   0  0  0  0  0  0  0  0  0  0  0  0
    3.5179  -48.7182  -21.5734 C   0  0  0  0  0  0  0  0  0  0  0  0
    3.3572  -48.4030  -20.2439 C   0  0  0  0  0  0  0  0  0  0  0  0
    4.0167  -49.3788  -19.5215 C   0  0  0  0  0  0  0  0  0  0  0  0
    4.5748  -50.2794  -20.3648 N   0  0  0  0  0  0  0  0  0  0  0  0
    4.2731  -49.8807  -21.6228 C   0  0  0  0  0  0  0  0  0  0  0  0
    4.7145  -50.6235  -22.8122 C   0  0  0  0  0  0  0  0  0  0  0  0
    5.3390  -51.7054  -22.6458 O   0  0  0  0  0  0  0  0  0  0  0  0
    4.4954  -50.2247  -24.1861 N   0  0  0  0  0  0  0  0  0  0  0  0
    4.4033  -48.8391  -24.5861 C   0  0  0  0  0  0  0  0  0  0  0  0
    4.5755  -48.6593  -25.8147 O   0  0  0  0  0  0  0  0  0  0  0  0
    5.1355  -51.1277  -20.1196 H   0  0  0  0  0  0  0  0  0  0  0  0
    2.9986  -46.9924  -25.8438 C   0  0  0  0  0  0  0  0  0  0  0  0
    3.7489  -46.5093  -24.6215 C   0  0  0  0  0  0  0  0  0  0  0  0
    2.8102  -45.5388  -23.9153 C   0  0  0  0  0  0  0  0  0  0  0  0
    5.0014  -45.7522  -24.9950 C   0  0  0  0  0  0  0  0  0  0  0  0
    0.6610  -52.4394  -27.7946 C   0  0  0  0  0  0  0  0  0  0  0  0
   -0.3720  -53.3202  -27.0868 C   0  0  0  0  0  0  0  0  0  0  0  0
   -1.3019  -52.4654  -26.2454 C   0  0  0  0  0  0  0  0  0  0  0  0
   -2.5892  -52.5073  -26.9593 N   0  0  0  0  0  0  0  0  0  0  0  0
   -2.5732  -51.8185  -27.7620 H   0  0  0  0  0  0  0  0  0  0  0  0
   -2.8081  -53.4771  -27.2920 H   0  0  0  0  0  0  0  0  0  0  0  0
   -1.5121  -53.1146  -25.0618 O   0  0  0  0  0  0  0  0  0  0  0  0
   -0.5404  -53.9790  -24.6566 C   0  0  0  0  0  0  0  0  0  0  0  0
   -1.0010  -54.9342  -23.6251 C   0  0  0  0  0  0  0  0  0  0  0  0
   -0.4892  -54.7770  -22.3356 O   0  0  0  0  0  0  0  0  0  0  0  0
   -1.1270  -54.0168  -21.3649 C   0  0  0  0  0  0  0  0  0  0  0  0
   -2.2104  -54.4280  -20.9107 O   0  0  0  0  0  0  0  0  0  0  0  0
   -0.5041  -52.7743  -20.9205 C   0  0  0  0  0  0  0  0  0  0  0  0
   -0.2078  -51.6573  -21.6500 C   0  0  0  0  0  0  0  0  0  0  0  0
    0.3614  -50.6341  -21.0078 C   0  0  0  0  0  0  0  0  0  0  0  0
    0.6068  -50.7777  -19.6692 C   0  0  0  0  0  0  0  0  0  0  0  0
    0.0254  -52.3574  -19.3518 S   0  0  0  0  0  0  0  0  0  0  0  0
 22 23  1  0  0  0
 23 24  1  0  0  0
 23 25  1  0  0  0
 23  9  1  0  0  0
  9 10  1  0  0  0
 10 11  1  0  0  0
 11 12  1  0  0  0
 12 13  2  0  0  0
 13 14  1  0  0  0
 14 15  1  0  0  0
 15 16  1  0  0  0
 16 17  2  0  0  0
 16 18  1  0  0  0
 18 19  1  0  0  0
 19 20  2  0  0  0
 18  7  1  0  0  0
  7  1  1  0  0  0
  1  2  1  0  0  0
  2  3  1  0  0  0
  3  4  1  0  0  0
  4 26  1  0  0  0
 26 27  1  0  0  0
 27 28  1  0  0  0
 28 32  1  0  0  0
 32 33  1  0  0  0
 33 34  1  0  0  0
 34 35  1  0  0  0
 35 36  1  0  0  0
 36 37  2  0  0  0
 36 38  1  0  0  0
 38 39  2  0  0  0
 39 40  1  0  0  0
 40 41  2  0  0  0
 41 42  1  0  0  0
 28 29  1  0  0  0
  4  5  1  0  0  0
  5  6  2  0  0  0
 19  9  1  0  0  0
  5  1  1  0  0  0
 15 11  2  0  0  0
 42 38  1  0  0  0
 14 21  1  0  0  0
  7  8  1  0  0  0
 29 30  1  0  0  0
 29 31  1  0  0  0
M  END
> <minimizedAffinity>
-7.55788

> <CNNscore>
0.1776807606

> <CNNaffinity>
6.8385400772

> <CNN_VS>
1.2150770426

> <CNNaffinity_variance>
0.6577205658

$$$$
[H]N=C(N([H])[H])N([H])C([H])([H])C([H])([H])C([H])([H])[C@@]1([H])C(=O)N2C([H])([H])C([H])([H])C([H])([H])[C@@]2([H])C(=O)N([H])[C@@]([H])(C([H])([H])C([H])([H])C(=O)O[H])C(=O)N2C([H])([H])C([H])([H])C([H])([H])[C@@]2([H])C(=O)N1[H]


 41 43  0  0  0  0  0  0  0  0999 V2000
    1.7544  -51.9474  -22.3774 C   0  0  0  0  0  0  0  0  0  0  0  0
    1.8164  -52.9109  -23.4535 N   0  0  0  0  0  0  0  0  0  0  0  0
    1.1467  -52.8059  -24.6851 C   0  0  0  0  0  0  0  0  0  0  0  0
    0.8668  -53.8614  -25.2995 O   0  0  0  0  0  0  0  0  0  0  0  0
    0.7500  -51.5151  -25.3021 C   0  0  0  0  0  0  0  0  0  0  0  0
   -0.7452  -51.6347  -25.5836 C   0  0  0  0  0  0  0  0  0  0  0  0
   -0.7524  -52.3612  -26.8846 C   0  0  0  0  0  0  0  0  0  0  0  0
    0.6070  -52.2734  -27.5075 C   0  0  0  0  0  0  0  0  0  0  0  0
    1.3624  -51.3711  -26.6087 N   0  0  0  0  0  0  0  0  0  0  0  0
    2.4588  -50.5078  -26.8377 C   0  0  0  0  0  0  0  0  0  0  0  0
    3.3320  -50.9873  -27.6611 O   0  0  0  0  0  0  0  0  0  0  0  0
    2.7429  -49.2035  -26.3084 C   0  0  0  0  0  0  0  0  0  0  0  0
    3.3313  -48.9592  -25.0569 N   0  0  0  0  0  0  0  0  0  0  0  0
    3.7624  -49.6244  -23.9374 C   0  0  0  0  0  0  0  0  0  0  0  0
    3.2174  -49.2016  -22.8265 O   0  0  0  0  0  0  0  0  0  0  0  0
    4.6850  -50.6949  -23.6374 C   0  0  0  0  0  0  0  0  0  0  0  0
    5.0777  -51.6910  -24.6363 C   0  0  0  0  0  0  0  0  0  0  0  0
    5.9709  -52.5966  -23.7681 C   0  0  0  0  0  0  0  0  0  0  0  0
    5.6041  -52.2629  -22.3211 C   0  0  0  0  0  0  0  0  0  0  0  0
    4.3243  -51.5492  -22.5132 N   0  0  0  0  0  0  0  0  0  0  0  0
    3.0894  -51.6078  -21.8385 C   0  0  0  0  0  0  0  0  0  0  0  0
    3.0920  -51.3326  -20.5740 O   0  0  0  0  0  0  0  0  0  0  0  0
    2.4334  -53.7559  -23.2436 H   0  0  0  0  0  0  0  0  0  0  0  0
    3.4654  -47.8546  -24.9774 H   0  0  0  0  0  0  0  0  0  0  0  0
    0.8981  -52.6251  -21.2904 C   0  0  0  0  0  0  0  0  0  0  0  0
   -0.4012  -51.9126  -21.0677 C   0  0  0  0  0  0  0  0  0  0  0  0
   -0.1437  -50.4517  -20.6819 C   0  0  0  0  0  0  0  0  0  0  0  0
    0.5379  -50.3698  -19.4176 N   0  0  0  0  0  0  0  0  0  0  0  0
    0.5328  -51.1435  -18.7100 H   0  0  0  0  0  0  0  0  0  0  0  0
    1.3281  -48.7620  -17.7560 N   0  0  0  0  0  0  0  0  0  0  0  0
    1.2602  -49.2128  -19.0854 C   0  0  0  0  0  0  0  0  0  0  0  0
    1.8698  -48.5622  -20.0061 N   0  0  0  0  0  0  0  0  0  0  0  0
    0.6685  -49.1184  -17.0077 H   0  0  0  0  0  0  0  0  0  0  0  0
    2.0361  -48.0522  -17.4458 H   0  0  0  0  0  0  0  0  0  0  0  0
    2.4195  -47.6939  -19.7771 H   0  0  0  0  0  0  0  0  0  0  0  0
    3.5622  -48.3675  -27.3358 C   0  0  0  0  0  0  0  0  0  0  0  0
    3.3351  -46.9147  -27.1067 C   0  0  0  0  0  0  0  0  0  0  0  0
    4.6498  -46.3158  -26.7498 C   0  0  0  0  0  0  0  0  0  0  0  0
    5.4941  -45.7799  -27.7229 O   0  0  0  0  0  0  0  0  0  0  0  0
    4.9903  -46.2999  -25.5335 O   0  0  0  0  0  0  0  0  0  0  0  0
    5.3908  -44.7972  -27.9662 H   0  0  0  0  0  0  0  0  0  0  0  0
 30 31  1  0  0  0
 31 32  2  0  0  0
 31 28  1  0  0  0
 28 27  1  0  0  0
 27 26  1  0  0  0
 26 25  1  0  0  0
 25  1  1  0  0  0
  1  2  1  0  0  0
  2  3  1  0  0  0
  3  4  2  0  0  0
  3  5  1  0  0  0
  5  6  1  0  0  0
  6  7  1  0  0  0
  7  8  1  0  0  0
  8  9  1  0  0  0
  9 10  1  0  0  0
 10 11  2  0  0  0
 10 12  1  0  0  0
 12 36  1  0  0  0
 36 37  1  0  0  0
 37 38  1  0  0  0
 38 39  1  0  0  0
 38 40  2  0  0  0
 12 13  1  0  0  0
 13 14  1  0  0  0
 14 15  2  0  0  0
 14 16  1  0  0  0
 16 17  1  0  0  0
 17 18  1  0  0  0
 18 19  1  0  0  0
 19 20  1  0  0  0
 20 21  1  0  0  0
 21 22  2  0  0  0
 21  1  1  0  0  0
  9  5  1  0  0  0
 20 16  1  0  0  0
 30 33  1  0  0  0
 30 34  1  0  0  0
 32 35  1  0  0  0
 28 29  1  0  0  0
  2 23  1  0  0  0
 39 41  1  0  0  0
 13 24  1  0  0  0
M  END
> <minimizedAffinity>
-5.52052

> <CNNscore>
0.2087536156

> <CNNaffinity>
5.9822554588

> <CNN_VS>
1.2488174438

> <CNNaffinity_variance>
0.2088335454

$$$$
[H]N=C(N([H])[H])N([H])C([H])([H])C([H])([H])C([H])([H])[C@@]1([H])C(=O)N2C([H])([H])C([H])([H])C([H])([H])[C@@]2([H])C(=O)N([H])[C@@]([H])(C([H])([H])C([H])([H])C(=O)O[H])C(=O)N2C([H])([H])C([H])([H])C([H])([H])[C@@]2([H])C(=O)N1[H]


 41 43  0  0  0  0  0  0  0  0999 V2000
    0.3127  -51.8388  -23.3345 C   0  0  0  0  0  0  0  0  0  0  0  0
    1.5392  -52.6001  -23.2539 N   0  0  0  0  0  0  0  0  0  0  0  0
    2.8176  -52.1307  -23.6025 C   0  0  0  0  0  0  0  0  0  0  0  0
    3.6770  -52.9666  -23.9670 O   0  0  0  0  0  0  0  0  0  0  0  0
    3.2108  -50.6995  -23.5648 C   0  0  0  0  0  0  0  0  0  0  0  0
    3.7618  -50.3864  -24.9531 C   0  0  0  0  0  0  0  0  0  0  0  0
    5.1673  -50.8678  -24.8380 C   0  0  0  0  0  0  0  0  0  0  0  0
    5.5171  -51.0311  -23.3907 C   0  0  0  0  0  0  0  0  0  0  0  0
    4.3347  -50.5084  -22.6686 N   0  0  0  0  0  0  0  0  0  0  0  0
    4.1886  -49.9286  -21.3871 C   0  0  0  0  0  0  0  0  0  0  0  0
    4.9325  -50.4763  -20.4832 O   0  0  0  0  0  0  0  0  0  0  0  0
    3.3588  -48.8429  -20.9459 C   0  0  0  0  0  0  0  0  0  0  0  0
    2.0023  -48.9617  -20.6026 N   0  0  0  0  0  0  0  0  0  0  0  0
    0.9890  -49.8861  -20.5792 C   0  0  0  0  0  0  0  0  0  0  0  0
   -0.0760  -49.5225  -21.2452 O   0  0  0  0  0  0  0  0  0  0  0  0
    0.7657  -51.1905  -19.9999 C   0  0  0  0  0  0  0  0  0  0  0  0
    1.8681  -52.0797  -19.6284 C   0  0  0  0  0  0  0  0  0  0  0  0
    1.0682  -53.3108  -19.1636 C   0  0  0  0  0  0  0  0  0  0  0  0
   -0.3324  -53.1318  -19.7519 C   0  0  0  0  0  0  0  0  0  0  0  0
   -0.0777  -52.0937  -20.7724 N   0  0  0  0  0  0  0  0  0  0  0  0
   -0.5047  -51.9427  -22.1060 C   0  0  0  0  0  0  0  0  0  0  0  0
   -1.7803  -51.8844  -22.3163 O   0  0  0  0  0  0  0  0  0  0  0  0
    1.4077  -53.5970  -22.8967 H   0  0  0  0  0  0  0  0  0  0  0  0
    1.6728  -47.9556  -20.2507 H   0  0  0  0  0  0  0  0  0  0  0  0
   -0.4470  -52.4410  -24.5320 C   0  0  0  0  0  0  0  0  0  0  0  0
   -0.2036  -51.6777  -25.7983 C   0  0  0  0  0  0  0  0  0  0  0  0
   -1.1632  -52.1531  -26.8949 C   0  0  0  0  0  0  0  0  0  0  0  0
   -0.7193  -53.4011  -27.4562 N   0  0  0  0  0  0  0  0  0  0  0  0
   -1.1543  -54.3254  -27.2200 H   0  0  0  0  0  0  0  0  0  0  0  0
    1.4999  -54.1755  -28.1242 N   0  0  0  0  0  0  0  0  0  0  0  0
    0.3430  -53.4176  -28.3739 C   0  0  0  0  0  0  0  0  0  0  0  0
    0.2541  -52.7363  -29.4557 N   0  0  0  0  0  0  0  0  0  0  0  0
    1.7211  -54.5625  -27.1633 H   0  0  0  0  0  0  0  0  0  0  0  0
    2.1956  -54.3919  -28.8793 H   0  0  0  0  0  0  0  0  0  0  0  0
    1.0385  -52.7378  -30.1582 H   0  0  0  0  0  0  0  0  0  0  0  0
    4.0344  -48.0899  -19.7617 C   0  0  0  0  0  0  0  0  0  0  0  0
    3.5457  -46.6853  -19.7064 C   0  0  0  0  0  0  0  0  0  0  0  0
    4.1192  -45.9744  -20.8813 C   0  0  0  0  0  0  0  0  0  0  0  0
    5.4004  -45.4228  -20.8446 O   0  0  0  0  0  0  0  0  0  0  0  0
    3.4160  -45.8805  -21.9263 O   0  0  0  0  0  0  0  0  0  0  0  0
    6.1868  -46.0048  -21.1243 H   0  0  0  0  0  0  0  0  0  0  0  0
 30 31  1  0  0  0
 31 32  2  0  0  0
 31 28  1  0  0  0
 28 27  1  0  0  0
 27 26  1  0  0  0
 26 25  1  0  0  0
 25  1  1  0  0  0
  1  2  1  0  0  0
  2  3  1  0  0  0
  3  4  2  0  0  0
  3  5  1  0  0  0
  5  6  1  0  0  0
  6  7  1  0  0  0
  7  8  1  0  0  0
  8  9  1  0  0  0
  9 10  1  0  0  0
 10 11  2  0  0  0
 10 12  1  0  0  0
 12 36  1  0  0  0
 36 37  1  0  0  0
 37 38  1  0  0  0
 38 39  1  0  0  0
 38 40  2  0  0  0
 12 13  1  0  0  0
 13 14  1  0  0  0
 14 15  2  0  0  0
 14 16  1  0  0  0
 16 17  1  0  0  0
 17 18  1  0  0  0
 18 19  1  0  0  0
 19 20  1  0  0  0
 20 21  1  0  0  0
 21 22  2  0  0  0
 21  1  1  0  0  0
  9  5  1  0  0  0
 20 16  1  0  0  0
 30 33  1  0  0  0
 30 34  1  0  0  0
 32 35  1  0  0  0
 28 29  1  0  0  0
  2 23  1  0  0  0
 39 41  1  0  0  0
 13 24  1  0  0  0
M  END
> <minimizedAffinity>
-6.01052

> <CNNscore>
0.2083113790

> <CNNaffinity>
6.1830186844

> <CNN_VS>
1.2879931927

> <CNNaffinity_variance>
0.1258141547

$$$$
[H]N=C(N([H])[H])N([H])C([H])([H])C([H])([H])C([H])([H])[C@@]1([H])C(=O)N2C([H])([H])C([H])([H])C([H])([H])[C@@]2([H])C(=O)N([H])[C@@]([H])(C([H])([H])C([H])([H])C(=O)O[H])C(=O)N2C([H])([H])C([H])([H])C([H])([H])[C@@]2([H])C(=O)N1[H]


 41 43  0  0  0  0  0  0  0  0999 V2000
    1.8889  -51.1655  -23.0928 C   0  0  0  0  0  0  0  0  0  0  0  0
    3.0372  -51.7756  -22.4608 N   0  0  0  0  0  0  0  0  0  0  0  0
    3.9795  -51.1091  -21.6583 C   0  0  0  0  0  0  0  0  0  0  0  0
    5.1389  -51.5792  -21.5908 O   0  0  0  0  0  0  0  0  0  0  0  0
    3.6814  -49.8777  -20.8843 C   0  0  0  0  0  0  0  0  0  0  0  0
    4.7377  -48.8599  -21.3056 C   0  0  0  0  0  0  0  0  0  0  0  0
    5.8870  -49.2362  -20.4351 C   0  0  0  0  0  0  0  0  0  0  0  0
    5.3952  -50.0956  -19.3110 C   0  0  0  0  0  0  0  0  0  0  0  0
    3.9232  -50.0987  -19.4716 N   0  0  0  0  0  0  0  0  0  0  0  0
    2.8704  -50.2706  -18.5432 C   0  0  0  0  0  0  0  0  0  0  0  0
    3.1216  -51.1531  -17.6331 O   0  0  0  0  0  0  0  0  0  0  0  0
    1.5910  -49.6241  -18.4566 C   0  0  0  0  0  0  0  0  0  0  0  0
    0.4569  -49.9933  -19.1979 N   0  0  0  0  0  0  0  0  0  0  0  0
    0.0692  -50.8642  -20.1842 C   0  0  0  0  0  0  0  0  0  0  0  0
   -0.4768  -50.2829  -21.2205 O   0  0  0  0  0  0  0  0  0  0  0  0
    0.0954  -52.2926  -20.3989 C   0  0  0  0  0  0  0  0  0  0  0  0
    1.0406  -53.1699  -19.7054 C   0  0  0  0  0  0  0  0  0  0  0  0
    0.6818  -54.5156  -20.3626 C   0  0  0  0  0  0  0  0  0  0  0  0
   -0.0796  -54.1546  -21.6392 C   0  0  0  0  0  0  0  0  0  0  0  0
    0.2691  -52.7254  -21.7796 N   0  0  0  0  0  0  0  0  0  0  0  0
    0.6458  -51.9402  -22.8865 C   0  0  0  0  0  0  0  0  0  0  0  0
   -0.1890  -51.8682  -23.8727 O   0  0  0  0  0  0  0  0  0  0  0  0
    3.1337  -52.8207  -22.6537 H   0  0  0  0  0  0  0  0  0  0  0  0
   -0.3764  -49.3355  -18.8552 H   0  0  0  0  0  0  0  0  0  0  0  0
    2.2433  -51.1169  -24.5915 C   0  0  0  0  0  0  0  0  0  0  0  0
    2.9958  -49.8731  -24.9550 C   0  0  0  0  0  0  0  0  0  0  0  0
    4.2877  -50.2344  -25.6964 C   0  0  0  0  0  0  0  0  0  0  0  0
    5.4351  -50.0289  -24.8531 N   0  0  0  0  0  0  0  0  0  0  0  0
    5.7602  -49.0810  -24.5447 H   0  0  0  0  0  0  0  0  0  0  0  0
    7.3669  -50.9504  -23.6744 N   0  0  0  0  0  0  0  0  0  0  0  0
    6.1755  -51.1312  -24.3976 C   0  0  0  0  0  0  0  0  0  0  0  0
    5.7565  -52.3178  -24.6404 N   0  0  0  0  0  0  0  0  0  0  0  0
    7.8712  -50.0194  -23.6465 H   0  0  0  0  0  0  0  0  0  0  0  0
    7.8094  -51.7304  -23.1293 H   0  0  0  0  0  0  0  0  0  0  0  0
    6.2956  -53.1577  -24.3048 H   0  0  0  0  0  0  0  0  0  0  0  0
    1.1235  -49.5425  -16.9732 C   0  0  0  0  0  0  0  0  0  0  0  0
   -0.1890  -50.2259  -16.8147 C   0  0  0  0  0  0  0  0  0  0  0  0
    0.0511  -51.4572  -16.0141 C   0  0  0  0  0  0  0  0  0  0  0  0
   -0.6196  -52.6488  -16.2920 O   0  0  0  0  0  0  0  0  0  0  0  0
    0.8857  -51.4028  -15.0675 O   0  0  0  0  0  0  0  0  0  0  0  0
   -0.2018  -53.2965  -16.9564 H   0  0  0  0  0  0  0  0  0  0  0  0
 30 31  1  0  0  0
 31 32  2  0  0  0
 31 28  1  0  0  0
 28 27  1  0  0  0
 27 26  1  0  0  0
 26 25  1  0  0  0
 25  1  1  0  0  0
  1  2  1  0  0  0
  2  3  1  0  0  0
  3  4  2  0  0  0
  3  5  1  0  0  0
  5  6  1  0  0  0
  6  7  1  0  0  0
  7  8  1  0  0  0
  8  9  1  0  0  0
  9 10  1  0  0  0
 10 11  2  0  0  0
 10 12  1  0  0  0
 12 36  1  0  0  0
 36 37  1  0  0  0
 37 38  1  0  0  0
 38 39  1  0  0  0
 38 40  2  0  0  0
 12 13  1  0  0  0
 13 14  1  0  0  0
 14 15  2  0  0  0
 14 16  1  0  0  0
 16 17  1  0  0  0
 17 18  1  0  0  0
 18 19  1  0  0  0
 19 20  1  0  0  0
 20 21  1  0  0  0
 21 22  2  0  0  0
 21  1  1  0  0  0
  9  5  1  0  0  0
 20 16  1  0  0  0
 30 33  1  0  0  0
 30 34  1  0  0  0
 32 35  1  0  0  0
 28 29  1  0  0  0
  2 23  1  0  0  0
 39 41  1  0  0  0
 13 24  1  0  0  0
M  END
> <minimizedAffinity>
-6.03381

> <CNNscore>
0.1939880401

> <CNNaffinity>
5.7456936836

> <CNN_VS>
1.1145958900

> <CNNaffinity_variance>
0.2202629149

$$$$
[H]N=C(N([H])[H])N([H])C([H])([H])C([H])([H])C([H])([H])[C@@]1([H])C(=O)N2C([H])([H])C([H])([H])C([H])([H])[C@@]2([H])C(=O)N([H])[C@@]([H])(C([H])([H])C([H])([H])C(=O)O[H])C(=O)N2C([H])([H])C([H])([H])C([H])([H])[C@@]2([H])C(=O)N1[H]


 41 43  0  0  0  0  0  0  0  0999 V2000
    2.1581  -50.6569  -20.9065 C   0  0  0  0  0  0  0  0  0  0  0  0
    2.0500  -52.0926  -20.7750 N   0  0  0  0  0  0  0  0  0  0  0  0
    0.8875  -52.8496  -21.0027 C   0  0  0  0  0  0  0  0  0  0  0  0
    0.7644  -53.9422  -20.4017 O   0  0  0  0  0  0  0  0  0  0  0  0
   -0.2059  -52.4300  -21.9152 C   0  0  0  0  0  0  0  0  0  0  0  0
   -1.4828  -52.4842  -21.0811 C   0  0  0  0  0  0  0  0  0  0  0  0
   -1.8424  -53.9276  -21.1692 C   0  0  0  0  0  0  0  0  0  0  0  0
   -1.0960  -54.5547  -22.3064 C   0  0  0  0  0  0  0  0  0  0  0  0
   -0.4017  -53.4198  -22.9567 N   0  0  0  0  0  0  0  0  0  0  0  0
    0.0357  -53.2141  -24.2857 C   0  0  0  0  0  0  0  0  0  0  0  0
    0.5119  -54.2778  -24.8444 O   0  0  0  0  0  0  0  0  0  0  0  0
    0.0283  -52.0279  -25.0950 C   0  0  0  0  0  0  0  0  0  0  0  0
    1.0053  -51.0204  -25.0459 N   0  0  0  0  0  0  0  0  0  0  0  0
    2.1339  -50.6675  -24.3505 C   0  0  0  0  0  0  0  0  0  0  0  0
    2.0774  -49.4746  -23.8180 O   0  0  0  0  0  0  0  0  0  0  0  0
    3.4099  -51.2683  -24.0375 C   0  0  0  0  0  0  0  0  0  0  0  0
    3.6135  -52.7184  -24.0440 C   0  0  0  0  0  0  0  0  0  0  0  0
    5.0777  -52.7808  -23.5709 C   0  0  0  0  0  0  0  0  0  0  0  0
    5.3574  -51.4191  -22.9328 C   0  0  0  0  0  0  0  0  0  0  0  0
    3.9831  -50.9084  -22.7470 N   0  0  0  0  0  0  0  0  0  0  0  0
    3.3494  -50.2432  -21.6795 C   0  0  0  0  0  0  0  0  0  0  0  0
    3.8564  -49.1143  -21.3009 O   0  0  0  0  0  0  0  0  0  0  0  0
    2.9560  -52.5697  -20.4745 H   0  0  0  0  0  0  0  0  0  0  0  0
    0.7373  -50.2772  -25.8335 H   0  0  0  0  0  0  0  0  0  0  0  0
    2.2542  -50.1347  -19.4601 C   0  0  0  0  0  0  0  0  0  0  0  0
    0.9058  -49.8596  -18.8670 C   0  0  0  0  0  0  0  0  0  0  0  0
    0.6537  -50.7880  -17.6737 C   0  0  0  0  0  0  0  0  0  0  0  0
   -0.2266  -51.8648  -18.0413 N   0  0  0  0  0  0  0  0  0  0  0  0
   -0.3610  -52.1861  -19.0303 H   0  0  0  0  0  0  0  0  0  0  0  0
   -2.0853  -53.3076  -17.3825 N   0  0  0  0  0  0  0  0  0  0  0  0
   -0.9525  -52.5449  -17.0506 C   0  0  0  0  0  0  0  0  0  0  0  0
   -0.5739  -52.4729  -15.8284 N   0  0  0  0  0  0  0  0  0  0  0  0
   -2.5690  -53.2160  -18.3203 H   0  0  0  0  0  0  0  0  0  0  0  0
   -2.5017  -54.0025  -16.7154 H   0  0  0  0  0  0  0  0  0  0  0  0
   -1.1029  -52.9781  -15.0709 H   0  0  0  0  0  0  0  0  0  0  0  0
   -0.1276  -52.3984  -26.5997 C   0  0  0  0  0  0  0  0  0  0  0  0
    1.1187  -52.0600  -27.3391 C   0  0  0  0  0  0  0  0  0  0  0  0
    1.8216  -53.3404  -27.6239 C   0  0  0  0  0  0  0  0  0  0  0  0
    1.1165  -54.5119  -27.9020 O   0  0  0  0  0  0  0  0  0  0  0  0
    3.0846  -53.3461  -27.6108 O   0  0  0  0  0  0  0  0  0  0  0  0
    0.8758  -54.7145  -28.8697 H   0  0  0  0  0  0  0  0  0  0  0  0
 30 31  1  0  0  0
 31 32  2  0  0  0
 31 28  1  0  0  0
 28 27  1  0  0  0
 27 26  1  0  0  0
 26 25  1  0  0  0
 25  1  1  0  0  0
  1  2  1  0  0  0
  2  3  1  0  0  0
  3  4  2  0  0  0
  3  5  1  0  0  0
  5  6  1  0  0  0
  6  7  1  0  0  0
  7  8  1  0  0  0
  8  9  1  0  0  0
  9 10  1  0  0  0
 10 11  2  0  0  0
 10 12  1  0  0  0
 12 36  1  0  0  0
 36 37  1  0  0  0
 37 38  1  0  0  0
 38 39  1  0  0  0
 38 40  2  0  0  0
 12 13  1  0  0  0
 13 14  1  0  0  0
 14 15  2  0  0  0
 14 16  1  0  0  0
 16 17  1  0  0  0
 17 18  1  0  0  0
 18 19  1  0  0  0
 19 20  1  0  0  0
 20 21  1  0  0  0
 21 22  2  0  0  0
 21  1  1  0  0  0
  9  5  1  0  0  0
 20 16  1  0  0  0
 30 33  1  0  0  0
 30 34  1  0  0  0
 32 35  1  0  0  0
 28 29  1  0  0  0
  2 23  1  0  0  0
 39 41  1  0  0  0
 13 24  1  0  0  0
M  END
> <minimizedAffinity>
-8.03044

> <CNNscore>
0.1905758232

> <CNNaffinity>
6.1783118248

> <CNN_VS>
1.1774368286

> <CNNaffinity_variance>
0.5338260531

$$$$
[H]N=C(N([H])[H])N([H])C([H])([H])C([H])([H])C([H])([H])[C@@]1([H])C(=O)N2C([H])([H])C([H])([H])C([H])([H])[C@@]2([H])C(=O)N([H])[C@@]([H])(C([H])([H])C([H])([H])C(=O)O[H])C(=O)N2C([H])([H])C([H])([H])C([H])([H])[C@@]2([H])C(=O)N1[H]


 41 43  0  0  0  0  0  0  0  0999 V2000
    3.6298  -49.0073  -20.3953 C   0  0  0  0  0  0  0  0  0  0  0  0
    4.9428  -49.5221  -20.7136 N   0  0  0  0  0  0  0  0  0  0  0  0
    5.2388  -50.4221  -21.7521 C   0  0  0  0  0  0  0  0  0  0  0  0
    6.2446  -51.1591  -21.6291 O   0  0  0  0  0  0  0  0  0  0  0  0
    4.4279  -50.5518  -22.9890 C   0  0  0  0  0  0  0  0  0  0  0  0
    4.0701  -52.0317  -23.0943 C   0  0  0  0  0  0  0  0  0  0  0  0
    5.2937  -52.5958  -23.7306 C   0  0  0  0  0  0  0  0  0  0  0  0
    6.0929  -51.4838  -24.3375 C   0  0  0  0  0  0  0  0  0  0  0  0
    5.2437  -50.2841  -24.1576 N   0  0  0  0  0  0  0  0  0  0  0  0
    5.1474  -49.0751  -24.8848 C   0  0  0  0  0  0  0  0  0  0  0  0
    6.2859  -48.6334  -25.3079 O   0  0  0  0  0  0  0  0  0  0  0  0
    3.9997  -48.2805  -25.2218 C   0  0  0  0  0  0  0  0  0  0  0  0
    3.3972  -47.3434  -24.3669 N   0  0  0  0  0  0  0  0  0  0  0  0
    3.4876  -46.8616  -23.0857 C   0  0  0  0  0  0  0  0  0  0  0  0
    2.3726  -46.9454  -22.4077 O   0  0  0  0  0  0  0  0  0  0  0  0
    4.5066  -46.2646  -22.2536 C   0  0  0  0  0  0  0  0  0  0  0  0
    5.9355  -46.4661  -22.5022 C   0  0  0  0  0  0  0  0  0  0  0  0
    6.5222  -45.6989  -21.3027 C   0  0  0  0  0  0  0  0  0  0  0  0
    5.3702  -45.5597  -20.3060 C   0  0  0  0  0  0  0  0  0  0  0  0
    4.4223  -46.5651  -20.8302 N   0  0  0  0  0  0  0  0  0  0  0  0
    3.6236  -47.5407  -20.2026 C   0  0  0  0  0  0  0  0  0  0  0  0
    2.7578  -47.1278  -19.3338 O   0  0  0  0  0  0  0  0  0  0  0  0
    5.7168  -49.1597  -20.0747 H   0  0  0  0  0  0  0  0  0  0  0  0
    2.5750  -46.8633  -24.9483 H   0  0  0  0  0  0  0  0  0  0  0  0
    3.2343  -49.7179  -19.0867 C   0  0  0  0  0  0  0  0  0  0  0  0
    2.1784  -50.7586  -19.3047 C   0  0  0  0  0  0  0  0  0  0  0  0
    0.8048  -50.2105  -18.9020 C   0  0  0  0  0  0  0  0  0  0  0  0
    0.9404  -49.1478  -17.9418 N   0  0  0  0  0  0  0  0  0  0  0  0
    1.4633  -48.2601  -18.1360 H   0  0  0  0  0  0  0  0  0  0  0  0
   -0.1003  -48.1370  -15.9756 N   0  0  0  0  0  0  0  0  0  0  0  0
    0.3503  -49.2704  -16.6739 C   0  0  0  0  0  0  0  0  0  0  0  0
    0.2165  -50.4318  -16.1488 N   0  0  0  0  0  0  0  0  0  0  0  0
    0.1886  -47.1560  -16.2513 H   0  0  0  0  0  0  0  0  0  0  0  0
   -0.7437  -48.2129  -15.1501 H   0  0  0  0  0  0  0  0  0  0  0  0
   -0.2264  -50.5453  -15.2002 H   0  0  0  0  0  0  0  0  0  0  0  0
    4.2299  -47.5400  -26.5725 C   0  0  0  0  0  0  0  0  0  0  0  0
    3.9444  -48.4558  -27.7103 C   0  0  0  0  0  0  0  0  0  0  0  0
    4.9784  -48.2004  -28.7495 C   0  0  0  0  0  0  0  0  0  0  0  0
    6.1490  -48.9571  -28.8134 O   0  0  0  0  0  0  0  0  0  0  0  0
    4.7727  -47.2752  -29.5844 O   0  0  0  0  0  0  0  0  0  0  0  0
    6.1476  -49.8054  -29.3754 H   0  0  0  0  0  0  0  0  0  0  0  0
 30 31  1  0  0  0
 31 32  2  0  0  0
 31 28  1  0  0  0
 28 27  1  0  0  0
 27 26  1  0  0  0
 26 25  1  0  0  0
 25  1  1  0  0  0
  1  2  1  0  0  0
  2  3  1  0  0  0
  3  4  2  0  0  0
  3  5  1  0  0  0
  5  6  1  0  0  0
  6  7  1  0  0  0
  7  8  1  0  0  0
  8  9  1  0  0  0
  9 10  1  0  0  0
 10 11  2  0  0  0
 10 12  1  0  0  0
 12 36  1  0  0  0
 36 37  1  0  0  0
 37 38  1  0  0  0
 38 39  1  0  0  0
 38 40  2  0  0  0
 12 13  1  0  0  0
 13 14  1  0  0  0
 14 15  2  0  0  0
 14 16  1  0  0  0
 16 17  1  0  0  0
 17 18  1  0  0  0
 18 19  1  0  0  0
 19 20  1  0  0  0
 20 21  1  0  0  0
 21 22  2  0  0  0
 21  1  1  0  0  0
  9  5  1  0  0  0
 20 16  1  0  0  0
 30 33  1  0  0  0
 30 34  1  0  0  0
 32 35  1  0  0  0
 28 29  1  0  0  0
  2 23  1  0  0  0
 39 41  1  0  0  0
 13 24  1  0  0  0
M  END
> <minimizedAffinity>
-5.21747

> <CNNscore>
0.1765094101

> <CNNaffinity>
5.3276453018

> <CNN_VS>
0.9403795004

> <CNNaffinity_variance>
0.1782065332

$$$$
[H]N=C(N([H])[H])N([H])C([H])([H])C([H])([H])C([H])([H])[C@@]1([H])C(=O)N2C([H])([H])C([H])([H])C([H])([H])[C@@]2([H])C(=O)N([H])[C@@]([H])(C([H])([H])C([H])([H])C(=O)O[H])C(=O)N2C([H])([H])C([H])([H])C([H])([H])[C@@]2([H])C(=O)N1[H]


 41 43  0  0  0  0  0  0  0  0999 V2000
    1.1132  -51.4022  -22.3349 C   0  0  0  0  0  0  0  0  0  0  0  0
    1.0062  -49.9902  -22.0432 N   0  0  0  0  0  0  0  0  0  0  0  0
    1.4988  -49.3535  -20.8907 C   0  0  0  0  0  0  0  0  0  0  0  0
    0.9401  -48.2978  -20.5121 O   0  0  0  0  0  0  0  0  0  0  0  0
    2.6445  -49.8593  -20.0934 C   0  0  0  0  0  0  0  0  0  0  0  0
    2.1344  -49.9638  -18.6588 C   0  0  0  0  0  0  0  0  0  0  0  0
    2.3000  -48.5644  -18.1746 C   0  0  0  0  0  0  0  0  0  0  0  0
    3.2274  -47.8297  -19.0932 C   0  0  0  0  0  0  0  0  0  0  0  0
    3.6996  -48.8660  -20.0397 N   0  0  0  0  0  0  0  0  0  0  0  0
    4.8889  -48.9860  -20.7955 C   0  0  0  0  0  0  0  0  0  0  0  0
    5.3162  -47.8625  -21.2701 O   0  0  0  0  0  0  0  0  0  0  0  0
    5.6810  -50.1426  -21.1068 C   0  0  0  0  0  0  0  0  0  0  0  0
    5.4065  -51.0427  -22.1492 N   0  0  0  0  0  0  0  0  0  0  0  0
    4.4660  -51.2948  -23.1155 C   0  0  0  0  0  0  0  0  0  0  0  0
    3.9657  -52.5019  -23.0665 O   0  0  0  0  0  0  0  0  0  0  0  0
    3.8594  -50.5723  -24.2096 C   0  0  0  0  0  0  0  0  0  0  0  0
    3.8130  -49.1093  -24.2497 C   0  0  0  0  0  0  0  0  0  0  0  0
    3.0081  -48.9069  -25.5469 C   0  0  0  0  0  0  0  0  0  0  0  0
    2.3266  -50.2495  -25.8166 C   0  0  0  0  0  0  0  0  0  0  0  0
    2.4713  -50.9071  -24.5010 N   0  0  0  0  0  0  0  0  0  0  0  0
    1.5853  -51.6658  -23.7118 C   0  0  0  0  0  0  0  0  0  0  0  0
    1.1016  -52.7456  -24.2362 O   0  0  0  0  0  0  0  0  0  0  0  0
    0.4992  -49.4294  -22.7963 H   0  0  0  0  0  0  0  0  0  0  0  0
    6.2375  -51.7869  -22.1554 H   0  0  0  0  0  0  0  0  0  0  0  0
   -0.3134  -51.9529  -22.1466 C   0  0  0  0  0  0  0  0  0  0  0  0
   -0.3238  -53.2563  -21.4074 C   0  0  0  0  0  0  0  0  0  0  0  0
   -1.4970  -54.1224  -21.8794 C   0  0  0  0  0  0  0  0  0  0  0  0
   -1.0232  -55.2876  -22.5776 N   0  0  0  0  0  0  0  0  0  0  0  0
   -0.5897  -56.1111  -22.0948 H   0  0  0  0  0  0  0  0  0  0  0  0
   -1.1880  -56.6032  -24.6300 N   0  0  0  0  0  0  0  0  0  0  0  0
   -1.1372  -55.3609  -23.9749 C   0  0  0  0  0  0  0  0  0  0  0  0
   -1.2006  -54.2805  -24.6614 N   0  0  0  0  0  0  0  0  0  0  0  0
   -0.9118  -57.5045  -24.1470 H   0  0  0  0  0  0  0  0  0  0  0  0
   -1.5027  -56.6927  -25.6271 H   0  0  0  0  0  0  0  0  0  0  0  0
   -1.2894  -54.3140  -25.7100 H   0  0  0  0  0  0  0  0  0  0  0  0
    7.1789  -49.7473  -21.2675 C   0  0  0  0  0  0  0  0  0  0  0  0
    7.6265  -50.0051  -22.6632 C   0  0  0  0  0  0  0  0  0  0  0  0
    7.5652  -48.7082  -23.3905 C   0  0  0  0  0  0  0  0  0  0  0  0
    7.6105  -47.4899  -22.7118 O   0  0  0  0  0  0  0  0  0  0  0  0
    7.4721  -48.7317  -24.6499 O   0  0  0  0  0  0  0  0  0  0  0  0
    8.5190  -47.0664  -22.5365 H   0  0  0  0  0  0  0  0  0  0  0  0
 30 31  1  0  0  0
 31 32  2  0  0  0
 31 28  1  0  0  0
 28 27  1  0  0  0
 27 26  1  0  0  0
 26 25  1  0  0  0
 25  1  1  0  0  0
  1  2  1  0  0  0
  2  3  1  0  0  0
  3  4  2  0  0  0
  3  5  1  0  0  0
  5  6  1  0  0  0
  6  7  1  0  0  0
  7  8  1  0  0  0
  8  9  1  0  0  0
  9 10  1  0  0  0
 10 11  2  0  0  0
 10 12  1  0  0  0
 12 36  1  0  0  0
 36 37  1  0  0  0
 37 38  1  0  0  0
 38 39  1  0  0  0
 38 40  2  0  0  0
 12 13  1  0  0  0
 13 14  1  0  0  0
 14 15  2  0  0  0
 14 16  1  0  0  0
 16 17  1  0  0  0
 17 18  1  0  0  0
 18 19  1  0  0  0
 19 20  1  0  0  0
 20 21  1  0  0  0
 21 22  2  0  0  0
 21  1  1  0  0  0
  9  5  1  0  0  0
 20 16  1  0  0  0
 30 33  1  0  0  0
 30 34  1  0  0  0
 32 35  1  0  0  0
 28 29  1  0  0  0
  2 23  1  0  0  0
 39 41  1  0  0  0
 13 24  1  0  0  0
M  END
> <minimizedAffinity>
-6.33130

> <CNNscore>
0.1449601501

> <CNNaffinity>
5.8736734390

> <CNN_VS>
0.8514485955

> <CNNaffinity_variance>
0.1483629793

$$$$
[H]N=C(N([H])[H])N([H])C([H])([H])C([H])([H])C([H])([H])[C@@]1([H])C(=O)N2C([H])([H])C([H])([H])C([H])([H])[C@@]2([H])C(=O)N([H])[C@@]([H])(C([H])([H])C([H])([H])C(=O)O[H])C(=O)N2C([H])([H])C([H])([H])C([H])([H])[C@@]2([H])C(=O)N1[H]


 41 43  0  0  0  0  0  0  0  0999 V2000
    2.4986  -51.2386  -23.1884 C   0  0  0  0  0  0  0  0  0  0  0  0
    1.0898  -51.0884  -22.9001 N   0  0  0  0  0  0  0  0  0  0  0  0
    0.3475  -51.8849  -22.0108 C   0  0  0  0  0  0  0  0  0  0  0  0
   -0.8844  -52.0026  -22.2075 O   0  0  0  0  0  0  0  0  0  0  0  0
    0.9382  -52.5969  -20.8497 C   0  0  0  0  0  0  0  0  0  0  0  0
    0.5198  -54.0564  -21.0044 C   0  0  0  0  0  0  0  0  0  0  0  0
   -0.8486  -54.0445  -20.4147 C   0  0  0  0  0  0  0  0  0  0  0  0
   -1.0245  -52.8009  -19.5984 C   0  0  0  0  0  0  0  0  0  0  0  0
    0.3104  -52.1605  -19.6175 N   0  0  0  0  0  0  0  0  0  0  0  0
    0.9566  -51.2924  -18.7071 C   0  0  0  0  0  0  0  0  0  0  0  0
    0.1643  -50.4262  -18.1665 O   0  0  0  0  0  0  0  0  0  0  0  0
    2.3313  -51.2300  -18.2965 C   0  0  0  0  0  0  0  0  0  0  0  0
    3.3509  -50.5822  -19.0125 N   0  0  0  0  0  0  0  0  0  0  0  0
    3.5619  -49.9145  -20.1921 C   0  0  0  0  0  0  0  0  0  0  0  0
    4.5198  -50.4210  -20.9241 O   0  0  0  0  0  0  0  0  0  0  0  0
    3.0023  -48.7672  -20.8684 C   0  0  0  0  0  0  0  0  0  0  0  0
    1.6491  -48.2805  -20.5922 C   0  0  0  0  0  0  0  0  0  0  0  0
    1.5645  -47.1388  -21.6222 C   0  0  0  0  0  0  0  0  0  0  0  0
    2.6773  -47.4199  -22.6334 C   0  0  0  0  0  0  0  0  0  0  0  0
    2.9877  -48.8313  -22.3242 N   0  0  0  0  0  0  0  0  0  0  0  0
    3.2310  -49.9544  -23.1385 C   0  0  0  0  0  0  0  0  0  0  0  0
    4.2234  -49.8821  -23.9659 O   0  0  0  0  0  0  0  0  0  0  0  0
    0.6202  -50.2937  -23.4355 H   0  0  0  0  0  0  0  0  0  0  0  0
    4.2778  -50.6698  -18.3979 H   0  0  0  0  0  0  0  0  0  0  0  0
    2.5490  -51.8252  -24.6123 C   0  0  0  0  0  0  0  0  0  0  0  0
    3.3678  -53.0785  -24.6792 C   0  0  0  0  0  0  0  0  0  0  0  0
    4.8008  -52.7512  -25.1133 C   0  0  0  0  0  0  0  0  0  0  0  0
    5.6705  -52.6524  -23.9716 N   0  0  0  0  0  0  0  0  0  0  0  0
    5.7333  -53.3915  -23.2305 H   0  0  0  0  0  0  0  0  0  0  0  0
    6.8133  -51.0399  -22.5348 N   0  0  0  0  0  0  0  0  0  0  0  0
    6.4939  -51.5264  -23.8141 C   0  0  0  0  0  0  0  0  0  0  0  0
    6.9643  -50.9376  -24.8506 N   0  0  0  0  0  0  0  0  0  0  0  0
    6.2776  -51.3377  -21.6709 H   0  0  0  0  0  0  0  0  0  0  0  0
    7.5974  -50.3602  -22.3790 H   0  0  0  0  0  0  0  0  0  0  0  0
    7.5863  -50.0935  -24.7537 H   0  0  0  0  0  0  0  0  0  0  0  0
    2.4375  -50.7058  -16.8337 C   0  0  0  0  0  0  0  0  0  0  0  0
    3.3717  -49.5489  -16.7741 C   0  0  0  0  0  0  0  0  0  0  0  0
    2.5496  -48.3142  -16.8929 C   0  0  0  0  0  0  0  0  0  0  0  0
    1.2243  -48.2772  -16.4580 O   0  0  0  0  0  0  0  0  0  0  0  0
    3.0817  -47.2868  -17.3996 O   0  0  0  0  0  0  0  0  0  0  0  0
    1.0380  -48.0120  -15.4934 H   0  0  0  0  0  0  0  0  0  0  0  0
 30 31  1  0  0  0
 31 32  2  0  0  0
 31 28  1  0  0  0
 28 27  1  0  0  0
 27 26  1  0  0  0
 26 25  1  0  0  0
 25  1  1  0  0  0
  1  2  1  0  0  0
  2  3  1  0  0  0
  3  4  2  0  0  0
  3  5  1  0  0  0
  5  6  1  0  0  0
  6  7  1  0  0  0
  7  8  1  0  0  0
  8  9  1  0  0  0
  9 10  1  0  0  0
 10 11  2  0  0  0
 10 12  1  0  0  0
 12 36  1  0  0  0
 36 37  1  0  0  0
 37 38  1  0  0  0
 38 39  1  0  0  0
 38 40  2  0  0  0
 12 13  1  0  0  0
 13 14  1  0  0  0
 14 15  2  0  0  0
 14 16  1  0  0  0
 16 17  1  0  0  0
 17 18  1  0  0  0
 18 19  1  0  0  0
 19 20  1  0  0  0
 20 21  1  0  0  0
 21 22  2  0  0  0
 21  1  1  0  0  0
  9  5  1  0  0  0
 20 16  1  0  0  0
 30 33  1  0  0  0
 30 34  1  0  0  0
 32 35  1  0  0  0
 28 29  1  0  0  0
  2 23  1  0  0  0
 39 41  1  0  0  0
 13 24  1  0  0  0
M  END
> <minimizedAffinity>
-5.75177

> <CNNscore>
0.1367789507

> <CNNaffinity>
5.5633854866

> <CNN_VS>
0.7609540224

> <CNNaffinity_variance>
0.0524731949

$$$$
[H]N=C(N([H])[H])N([H])C([H])([H])C([H])([H])C([H])([H])[C@@]1([H])C(=O)N2C([H])([H])C([H])([H])C([H])([H])[C@@]2([H])C(=O)N([H])[C@@]([H])(C([H])([H])C([H])([H])C(=O)O[H])C(=O)N2C([H])([H])C([H])([H])C([H])([H])[C@@]2([H])C(=O)N1[H]


 41 43  0  0  0  0  0  0  0  0999 V2000
    3.9375  -49.5620  -21.4331 C   0  0  0  0  0  0  0  0  0  0  0  0
    3.7530  -50.9174  -20.9652 N   0  0  0  0  0  0  0  0  0  0  0  0
    2.5152  -51.5345  -20.7133 C   0  0  0  0  0  0  0  0  0  0  0  0
    2.4765  -52.4653  -19.8754 O   0  0  0  0  0  0  0  0  0  0  0  0
    1.2479  -51.1473  -21.3827 C   0  0  0  0  0  0  0  0  0  0  0  0
    0.2568  -50.8641  -20.2573 C   0  0  0  0  0  0  0  0  0  0  0  0
   -0.2305  -52.2336  -19.9295 C   0  0  0  0  0  0  0  0  0  0  0  0
    0.1122  -53.1626  -21.0535 C   0  0  0  0  0  0  0  0  0  0  0  0
    0.6867  -52.2795  -22.0941 N   0  0  0  0  0  0  0  0  0  0  0  0
    0.7485  -52.3924  -23.5024 C   0  0  0  0  0  0  0  0  0  0  0  0
    0.9594  -53.5984  -23.9163 O   0  0  0  0  0  0  0  0  0  0  0  0
    0.6115  -51.3918  -24.5233 C   0  0  0  0  0  0  0  0  0  0  0  0
    1.6424  -50.5393  -24.9506 N   0  0  0  0  0  0  0  0  0  0  0  0
    2.9459  -50.2217  -24.6647 C   0  0  0  0  0  0  0  0  0  0  0  0
    3.1396  -48.9535  -24.4121 O   0  0  0  0  0  0  0  0  0  0  0  0
    4.2046  -50.9241  -24.5664 C   0  0  0  0  0  0  0  0  0  0  0  0
    4.2782  -52.3630  -24.3054 C   0  0  0  0  0  0  0  0  0  0  0  0
    5.8060  -52.5379  -24.2235 C   0  0  0  0  0  0  0  0  0  0  0  0
    6.3647  -51.1324  -23.9953 C   0  0  0  0  0  0  0  0  0  0  0  0
    5.1448  -50.4094  -23.5792 N   0  0  0  0  0  0  0  0  0  0  0  0
    4.8935  -49.4723  -22.5583 C   0  0  0  0  0  0  0  0  0  0  0  0
    5.5774  -48.3739  -22.5814 O   0  0  0  0  0  0  0  0  0  0  0  0
    4.6645  -51.4503  -20.8107 H   0  0  0  0  0  0  0  0  0  0  0  0
    1.2260  -49.9290  -25.7865 H   0  0  0  0  0  0  0  0  0  0  0  0
    4.4786  -48.7937  -20.2121 C   0  0  0  0  0  0  0  0  0  0  0  0
    3.3797  -48.1958  -19.3872 C   0  0  0  0  0  0  0  0  0  0  0  0
    3.6982  -48.3438  -17.8953 C   0  0  0  0  0  0  0  0  0  0  0  0
    4.3255  -49.6111  -17.6301 N   0  0  0  0  0  0  0  0  0  0  0  0
    5.3199  -49.8253  -17.8842 H   0  0  0  0  0  0  0  0  0  0  0  0
    2.2226  -50.7877  -17.2251 N   0  0  0  0  0  0  0  0  0  0  0  0
    3.6003  -50.6319  -16.9954 C   0  0  0  0  0  0  0  0  0  0  0  0
    4.2040  -51.4352  -16.1999 N   0  0  0  0  0  0  0  0  0  0  0  0
    1.6397  -50.0289  -17.6795 H   0  0  0  0  0  0  0  0  0  0  0  0
    1.7104  -51.6634  -16.9569 H   0  0  0  0  0  0  0  0  0  0  0  0
    3.6787  -52.2093  -15.7166 H   0  0  0  0  0  0  0  0  0  0  0  0
    0.0093  -52.0154  -25.8172 C   0  0  0  0  0  0  0  0  0  0  0  0
   -1.4690  -51.8442  -25.8244 C   0  0  0  0  0  0  0  0  0  0  0  0
   -1.9767  -52.4659  -27.0776 C   0  0  0  0  0  0  0  0  0  0  0  0
   -3.2714  -52.2236  -27.5381 O   0  0  0  0  0  0  0  0  0  0  0  0
   -1.2028  -53.2251  -27.7257 O   0  0  0  0  0  0  0  0  0  0  0  0
   -3.4244  -51.4330  -28.1602 H   0  0  0  0  0  0  0  0  0  0  0  0
 30 31  1  0  0  0
 31 32  2  0  0  0
 31 28  1  0  0  0
 28 27  1  0  0  0
 27 26  1  0  0  0
 26 25  1  0  0  0
 25  1  1  0  0  0
  1  2  1  0  0  0
  2  3  1  0  0  0
  3  4  2  0  0  0
  3  5  1  0  0  0
  5  6  1  0  0  0
  6  7  1  0  0  0
  7  8  1  0  0  0
  8  9  1  0  0  0
  9 10  1  0  0  0
 10 11  2  0  0  0
 10 12  1  0  0  0
 12 36  1  0  0  0
 36 37  1  0  0  0
 37 38  1  0  0  0
 38 39  1  0  0  0
 38 40  2  0  0  0
 12 13  1  0  0  0
 13 14  1  0  0  0
 14 15  2  0  0  0
 14 16  1  0  0  0
 16 17  1  0  0  0
 17 18  1  0  0  0
 18 19  1  0  0  0
 19 20  1  0  0  0
 20 21  1  0  0  0
 21 22  2  0  0  0
 21  1  1  0  0  0
  9  5  1  0  0  0
 20 16  1  0  0  0
 30 33  1  0  0  0
 30 34  1  0  0  0
 32 35  1  0  0  0
 28 29  1  0  0  0
  2 23  1  0  0  0
 39 41  1  0  0  0
 13 24  1  0  0  0
M  END
> <minimizedAffinity>
-7.82423

> <CNNscore>
0.1130518615

> <CNNaffinity>
5.8230462074

> <CNN_VS>
0.6583062410

> <CNNaffinity_variance>
0.3681774437

$$$$
[H]N=C(N([H])[H])N([H])C([H])([H])C([H])([H])C([H])([H])[C@@]1([H])C(=O)N2C([H])([H])C([H])([H])C([H])([H])[C@@]2([H])C(=O)N([H])[C@@]([H])(C([H])([H])C([H])([H])C(=O)O[H])C(=O)N2C([H])([H])C([H])([H])C([H])([H])[C@@]2([H])C(=O)N1[H]


 41 43  0  0  0  0  0  0  0  0999 V2000
    0.7840  -51.5193  -18.9457 C   0  0  0  0  0  0  0  0  0  0  0  0
    2.1083  -51.9284  -19.3571 N   0  0  0  0  0  0  0  0  0  0  0  0
    2.8719  -51.3262  -20.3722 C   0  0  0  0  0  0  0  0  0  0  0  0
    3.7258  -52.0254  -20.9655 O   0  0  0  0  0  0  0  0  0  0  0  0
    2.7259  -49.9074  -20.7843 C   0  0  0  0  0  0  0  0  0  0  0  0
    2.4939  -49.9377  -22.2924 C   0  0  0  0  0  0  0  0  0  0  0  0
    3.8867  -50.0385  -22.8123 C   0  0  0  0  0  0  0  0  0  0  0  0
    4.8478  -49.6544  -21.7295 C   0  0  0  0  0  0  0  0  0  0  0  0
    3.9816  -49.2016  -20.6170 N   0  0  0  0  0  0  0  0  0  0  0  0
    4.2013  -48.2925  -19.5563 C   0  0  0  0  0  0  0  0  0  0  0  0
    5.3953  -48.3491  -19.0649 O   0  0  0  0  0  0  0  0  0  0  0  0
    3.3188  -47.3319  -18.9560 C   0  0  0  0  0  0  0  0  0  0  0  0
    2.3669  -47.6292  -17.9672 N   0  0  0  0  0  0  0  0  0  0  0  0
    1.8445  -48.6964  -17.2817 C   0  0  0  0  0  0  0  0  0  0  0  0
    0.5450  -48.8045  -17.3791 O   0  0  0  0  0  0  0  0  0  0  0  0
    2.3501  -49.7658  -16.4523 C   0  0  0  0  0  0  0  0  0  0  0  0
    3.7372  -50.2280  -16.5326 C   0  0  0  0  0  0  0  0  0  0  0  0
    3.6856  -51.3919  -15.5255 C   0  0  0  0  0  0  0  0  0  0  0  0
    2.2009  -51.7190  -15.3575 C   0  0  0  0  0  0  0  0  0  0  0  0
    1.6267  -51.0284  -16.5311 N   0  0  0  0  0  0  0  0  0  0  0  0
    0.6532  -51.4047  -17.4768 C   0  0  0  0  0  0  0  0  0  0  0  0
   -0.5256  -51.6962  -17.0292 O   0  0  0  0  0  0  0  0  0  0  0  0
    2.4914  -52.7641  -18.8154 H   0  0  0  0  0  0  0  0  0  0  0  0
    1.8936  -46.6611  -17.6784 H   0  0  0  0  0  0  0  0  0  0  0  0
   -0.1523  -52.6204  -19.4794 C   0  0  0  0  0  0  0  0  0  0  0  0
   -0.5953  -52.3540  -20.8859 C   0  0  0  0  0  0  0  0  0  0  0  0
   -0.1564  -53.4998  -21.8044 C   0  0  0  0  0  0  0  0  0  0  0  0
    0.5412  -52.9928  -22.9559 N   0  0  0  0  0  0  0  0  0  0  0  0
    1.3372  -52.3132  -22.8934 H   0  0  0  0  0  0  0  0  0  0  0  0
   -0.9144  -54.2909  -24.4278 N   0  0  0  0  0  0  0  0  0  0  0  0
    0.1670  -53.4128  -24.2422 C   0  0  0  0  0  0  0  0  0  0  0  0
    0.8173  -52.9856  -25.2606 N   0  0  0  0  0  0  0  0  0  0  0  0
   -1.3307  -54.8462  -23.6276 H   0  0  0  0  0  0  0  0  0  0  0  0
   -1.3577  -54.4349  -25.3680 H   0  0  0  0  0  0  0  0  0  0  0  0
    0.5505  -53.2862  -26.2338 H   0  0  0  0  0  0  0  0  0  0  0  0
    4.1271  -46.1142  -18.4179 C   0  0  0  0  0  0  0  0  0  0  0  0
    3.7747  -45.8579  -16.9949 C   0  0  0  0  0  0  0  0  0  0  0  0
    4.9856  -46.1551  -16.1825 C   0  0  0  0  0  0  0  0  0  0  0  0
    5.9723  -47.0297  -16.6392 O   0  0  0  0  0  0  0  0  0  0  0  0
    5.1056  -45.5919  -15.0583 O   0  0  0  0  0  0  0  0  0  0  0  0
    6.7382  -46.6503  -17.1915 H   0  0  0  0  0  0  0  0  0  0  0  0
 30 31  1  0  0  0
 31 32  2  0  0  0
 31 28  1  0  0  0
 28 27  1  0  0  0
 27 26  1  0  0  0
 26 25  1  0  0  0
 25  1  1  0  0  0
  1  2  1  0  0  0
  2  3  1  0  0  0
  3  4  2  0  0  0
  3  5  1  0  0  0
  5  6  1  0  0  0
  6  7  1  0  0  0
  7  8  1  0  0  0
  8  9  1  0  0  0
  9 10  1  0  0  0
 10 11  2  0  0  0
 10 12  1  0  0  0
 12 36  1  0  0  0
 36 37  1  0  0  0
 37 38  1  0  0  0
 38 39  1  0  0  0
 38 40  2  0  0  0
 12 13  1  0  0  0
 13 14  1  0  0  0
 14 15  2  0  0  0
 14 16  1  0  0  0
 16 17  1  0  0  0
 17 18  1  0  0  0
 18 19  1  0  0  0
 19 20  1  0  0  0
 20 21  1  0  0  0
 21 22  2  0  0  0
 21  1  1  0  0  0
  9  5  1  0  0  0
 20 16  1  0  0  0
 30 33  1  0  0  0
 30 34  1  0  0  0
 32 35  1  0  0  0
 28 29  1  0  0  0
  2 23  1  0  0  0
 39 41  1  0  0  0
 13 24  1  0  0  0
M  END
> <minimizedAffinity>
-5.31168

> <CNNscore>
0.1042184085

> <CNNaffinity>
5.4917955399

> <CNN_VS>
0.5723462105

> <CNNaffinity_variance>
0.2233660668

$$$$
[H]c1nc([H])c(C(=O)N([H])c2c([H])c([H])c(C(=O)N([H])c3c([H])c([H])c([H])c(C([H])([H])[H])c3[H])c(Br)c2[H])c(C(F)(F)F)c1[H]


 32 34  0  0  0  0  0  0  0  0999 V2000
    4.1939  -50.0296  -18.6273 Br  0  0  0  0  0  0  0  0  0  0  0  0
    3.2175  -49.1279  -19.9939 C   0  0  0  0  0  0  0  0  0  0  0  0
    3.9175  -48.5146  -21.0402 C   0  0  0  0  0  0  0  0  0  0  0  0
    3.2334  -47.8450  -22.0545 C   0  0  0  0  0  0  0  0  0  0  0  0
    1.8472  -47.8203  -21.9718 C   0  0  0  0  0  0  0  0  0  0  0  0
    1.1628  -48.4317  -20.9331 C   0  0  0  0  0  0  0  0  0  0  0  0
    1.8544  -49.0818  -19.9435 C   0  0  0  0  0  0  0  0  0  0  0  0
    3.9672  -47.2042  -23.0856 N   0  0  0  0  0  0  0  0  0  0  0  0
    4.2389  -47.7513  -24.3445 C   0  0  0  0  0  0  0  0  0  0  0  0
    3.8534  -48.8963  -24.6487 O   0  0  0  0  0  0  0  0  0  0  0  0
    4.3143  -46.2274  -22.8573 H   0  0  0  0  0  0  0  0  0  0  0  0
    4.9998  -46.9188  -25.3045 C   0  0  0  0  0  0  0  0  0  0  0  0
    6.3987  -46.9707  -25.2823 C   0  0  0  0  0  0  0  0  0  0  0  0
    7.0995  -46.2225  -26.0992 N   0  0  0  0  0  0  0  0  0  0  0  0
    6.5359  -45.3952  -26.9706 C   0  0  0  0  0  0  0  0  0  0  0  0
    5.1596  -45.2722  -27.0713 C   0  0  0  0  0  0  0  0  0  0  0  0
    4.4090  -46.0749  -26.1958 C   0  0  0  0  0  0  0  0  0  0  0  0
    2.9276  -45.9719  -26.3202 C   0  0  0  0  0  0  0  0  0  0  0  0
    2.5922  -45.0895  -27.3453 F   0  0  0  0  0  0  0  0  0  0  0  0
    2.3062  -45.4768  -25.2067 F   0  0  0  0  0  0  0  0  0  0  0  0
    2.3461  -47.1755  -26.7484 F   0  0  0  0  0  0  0  0  0  0  0  0
    1.0368  -49.7214  -18.9059 C   0  0  0  0  0  0  0  0  0  0  0  0
    0.4674  -50.7953  -19.2409 O   0  0  0  0  0  0  0  0  0  0  0  0
    0.9093  -49.1703  -17.6237 N   0  0  0  0  0  0  0  0  0  0  0  0
    1.4524  -48.2433  -17.4199 H   0  0  0  0  0  0  0  0  0  0  0  0
    0.1600  -49.7350  -16.5646 C   0  0  0  0  0  0  0  0  0  0  0  0
    0.5585  -50.9924  -16.0547 C   0  0  0  0  0  0  0  0  0  0  0  0
   -0.1090  -51.6706  -15.0623 C   0  0  0  0  0  0  0  0  0  0  0  0
   -1.2402  -51.1057  -14.5116 C   0  0  0  0  0  0  0  0  0  0  0  0
   -1.6686  -49.8771  -14.9755 C   0  0  0  0  0  0  0  0  0  0  0  0
   -2.8663  -49.2051  -14.4184 C   0  0  0  0  0  0  0  0  0  0  0  0
   -0.9629  -49.2409  -15.9759 C   0  0  0  0  0  0  0  0  0  0  0  0
  1  2  1  0  0  0
  2  3  2  0  0  0
  3  4  1  0  0  0
  4  8  1  0  0  0
  8  9  1  0  0  0
  9 10  2  0  0  0
  9 12  1  0  0  0
 12 13  2  0  0  0
 13 14  1  0  0  0
 14 15  2  0  0  0
 15 16  1  0  0  0
 16 17  2  0  0  0
 17 18  1  0  0  0
 18 19  1  0  0  0
 18 20  1  0  0  0
 18 21  1  0  0  0
  4  5  2  0  0  0
  5  6  1  0  0  0
  6  7  2  0  0  0
  7 22  1  0  0  0
 22 23  2  0  0  0
 22 24  1  0  0  0
 24 26  1  0  0  0
 26 27  2  0  0  0
 27 28  1  0  0  0
 28 29  2  0  0  0
 29 30  1  0  0  0
 30 31  1  0  0  0
 30 32  2  0  0  0
  7  2  1  0  0  0
 32 26  1  0  0  0
 17 12  1  0  0  0
  8 11  1  0  0  0
 24 25  1  0  0  0
M  END
> <minimizedAffinity>
-5.44709

> <CNNscore>
0.4052886367

> <CNNaffinity>
5.8223371506

> <CNN_VS>
2.3597271442

> <CNNaffinity_variance>
0.5997153521

$$$$
[H]c1nc([H])c(C(=O)N([H])c2c([H])c([H])c(C(=O)N([H])c3c([H])c([H])c([H])c(C([H])([H])[H])c3[H])c(Br)c2[H])c(C(F)(F)F)c1[H]


 32 34  0  0  0  0  0  0  0  0999 V2000
   -0.5893  -53.0060  -18.9018 Br  0  0  0  0  0  0  0  0  0  0  0  0
    0.2389  -52.3345  -20.4820 C   0  0  0  0  0  0  0  0  0  0  0  0
   -0.3776  -52.5526  -21.7202 C   0  0  0  0  0  0  0  0  0  0  0  0
    0.2033  -52.0763  -22.8953 C   0  0  0  0  0  0  0  0  0  0  0  0
    1.4029  -51.3874  -22.7728 C   0  0  0  0  0  0  0  0  0  0  0  0
    2.0050  -51.1748  -21.5426 C   0  0  0  0  0  0  0  0  0  0  0  0
    1.4195  -51.6546  -20.3993 C   0  0  0  0  0  0  0  0  0  0  0  0
   -0.4247  -52.3388  -24.1400 N   0  0  0  0  0  0  0  0  0  0  0  0
   -0.1303  -51.6934  -25.3461 C   0  0  0  0  0  0  0  0  0  0  0  0
    0.7275  -50.7918  -25.4042 O   0  0  0  0  0  0  0  0  0  0  0  0
   -1.1647  -53.0997  -24.1246 H   0  0  0  0  0  0  0  0  0  0  0  0
   -0.8739  -52.1223  -26.5530 C   0  0  0  0  0  0  0  0  0  0  0  0
   -2.2515  -51.8811  -26.6185 C   0  0  0  0  0  0  0  0  0  0  0  0
   -2.9415  -52.2765  -27.6605 N   0  0  0  0  0  0  0  0  0  0  0  0
   -2.3864  -52.9115  -28.6852 C   0  0  0  0  0  0  0  0  0  0  0  0
   -1.0309  -53.1963  -28.7165 C   0  0  0  0  0  0  0  0  0  0  0  0
   -0.2917  -52.7716  -27.5994 C   0  0  0  0  0  0  0  0  0  0  0  0
    1.1724  -53.0458  -27.6401 C   0  0  0  0  0  0  0  0  0  0  0  0
    1.4761  -53.8725  -28.7202 F   0  0  0  0  0  0  0  0  0  0  0  0
    1.6481  -53.7070  -26.5411 F   0  0  0  0  0  0  0  0  0  0  0  0
    1.9210  -51.8913  -27.9169 F   0  0  0  0  0  0  0  0  0  0  0  0
    2.1203  -51.3511  -19.1459 C   0  0  0  0  0  0  0  0  0  0  0  0
    3.2457  -51.9005  -19.0000 O   0  0  0  0  0  0  0  0  0  0  0  0
    1.5693  -50.4968  -18.1812 N   0  0  0  0  0  0  0  0  0  0  0  0
    0.5940  -50.0541  -18.4017 H   0  0  0  0  0  0  0  0  0  0  0  0
    2.1890  -50.1380  -16.9609 C   0  0  0  0  0  0  0  0  0  0  0  0
    2.9376  -48.9391  -16.9138 C   0  0  0  0  0  0  0  0  0  0  0  0
    3.6263  -48.5010  -15.8075 C   0  0  0  0  0  0  0  0  0  0  0  0
    3.5962  -49.2617  -14.6574 C   0  0  0  0  0  0  0  0  0  0  0  0
    2.8769  -50.4409  -14.6535 C   0  0  0  0  0  0  0  0  0  0  0  0
    2.7886  -51.2989  -13.4483 C   0  0  0  0  0  0  0  0  0  0  0  0
    2.2062  -50.8356  -15.7927 C   0  0  0  0  0  0  0  0  0  0  0  0
  1  2  1  0  0  0
  2  3  2  0  0  0
  3  4  1  0  0  0
  4  8  1  0  0  0
  8  9  1  0  0  0
  9 10  2  0  0  0
  9 12  1  0  0  0
 12 13  2  0  0  0
 13 14  1  0  0  0
 14 15  2  0  0  0
 15 16  1  0  0  0
 16 17  2  0  0  0
 17 18  1  0  0  0
 18 19  1  0  0  0
 18 20  1  0  0  0
 18 21  1  0  0  0
  4  5  2  0  0  0
  5  6  1  0  0  0
  6  7  2  0  0  0
  7 22  1  0  0  0
 22 23  2  0  0  0
 22 24  1  0  0  0
 24 26  1  0  0  0
 26 27  2  0  0  0
 27 28  1  0  0  0
 28 29  2  0  0  0
 29 30  1  0  0  0
 30 31  1  0  0  0
 30 32  2  0  0  0
  7  2  1  0  0  0
 32 26  1  0  0  0
 17 12  1  0  0  0
  8 11  1  0  0  0
 24 25  1  0  0  0
M  END
> <minimizedAffinity>
-8.00089

> <CNNscore>
0.2472712547

> <CNNaffinity>
6.2043194771

> <CNN_VS>
1.5341498852

> <CNNaffinity_variance>
0.1684252173

$$$$
[H]c1nc([H])c(C(=O)N([H])c2c([H])c([H])c(C(=O)N([H])c3c([H])c([H])c([H])c(C([H])([H])[H])c3[H])c(Br)c2[H])c(C(F)(F)F)c1[H]


 32 34  0  0  0  0  0  0  0  0999 V2000
    1.9684  -51.9930  -22.4908 Br  0  0  0  0  0  0  0  0  0  0  0  0
    0.5008  -52.6560  -21.4708 C   0  0  0  0  0  0  0  0  0  0  0  0
    0.5160  -52.5075  -20.0785 C   0  0  0  0  0  0  0  0  0  0  0  0
   -0.5411  -52.9833  -19.3030 C   0  0  0  0  0  0  0  0  0  0  0  0
   -1.5890  -53.6003  -19.9739 C   0  0  0  0  0  0  0  0  0  0  0  0
   -1.5961  -53.7413  -21.3527 C   0  0  0  0  0  0  0  0  0  0  0  0
   -0.5452  -53.2699  -22.0968 C   0  0  0  0  0  0  0  0  0  0  0  0
   -0.4864  -52.8495  -17.8918 N   0  0  0  0  0  0  0  0  0  0  0  0
   -0.3251  -51.6442  -17.1996 C   0  0  0  0  0  0  0  0  0  0  0  0
   -0.1934  -50.5635  -17.8053 O   0  0  0  0  0  0  0  0  0  0  0  0
   -0.5913  -53.7532  -17.3448 H   0  0  0  0  0  0  0  0  0  0  0  0
   -0.3189  -51.6986  -15.7196 C   0  0  0  0  0  0  0  0  0  0  0  0
    0.8976  -51.9000  -15.0564 C   0  0  0  0  0  0  0  0  0  0  0  0
    0.9301  -51.9832  -13.7487 N   0  0  0  0  0  0  0  0  0  0  0  0
   -0.1610  -51.8835  -12.9997 C   0  0  0  0  0  0  0  0  0  0  0  0
   -1.4120  -51.6824  -13.5600 C   0  0  0  0  0  0  0  0  0  0  0  0
   -1.4460  -51.5928  -14.9619 C   0  0  0  0  0  0  0  0  0  0  0  0
   -2.7835  -51.3444  -15.5702 C   0  0  0  0  0  0  0  0  0  0  0  0
   -3.7851  -51.5282  -14.6187 F   0  0  0  0  0  0  0  0  0  0  0  0
   -3.1009  -52.1985  -16.5906 F   0  0  0  0  0  0  0  0  0  0  0  0
   -2.9561  -50.0023  -15.9427 F   0  0  0  0  0  0  0  0  0  0  0  0
   -0.6624  -53.4413  -23.5498 C   0  0  0  0  0  0  0  0  0  0  0  0
   -0.6518  -54.6321  -23.9640 O   0  0  0  0  0  0  0  0  0  0  0  0
   -0.7862  -52.3450  -24.4140 N   0  0  0  0  0  0  0  0  0  0  0  0
   -0.8009  -51.3493  -23.9621 H   0  0  0  0  0  0  0  0  0  0  0  0
   -0.9252  -52.4268  -25.8197 C   0  0  0  0  0  0  0  0  0  0  0  0
   -2.1909  -52.1523  -26.3874 C   0  0  0  0  0  0  0  0  0  0  0  0
   -2.4715  -52.2422  -27.7303 C   0  0  0  0  0  0  0  0  0  0  0  0
   -1.4682  -52.6188  -28.5986 C   0  0  0  0  0  0  0  0  0  0  0  0
   -0.2135  -52.8961  -28.0917 C   0  0  0  0  0  0  0  0  0  0  0  0
    0.9143  -53.2909  -28.9686 C   0  0  0  0  0  0  0  0  0  0  0  0
    0.0130  -52.7932  -26.7347 C   0  0  0  0  0  0  0  0  0  0  0  0
  1  2  1  0  0  0
  2  3  2  0  0  0
  3  4  1  0  0  0
  4  8  1  0  0  0
  8  9  1  0  0  0
  9 10  2  0  0  0
  9 12  1  0  0  0
 12 13  2  0  0  0
 13 14  1  0  0  0
 14 15  2  0  0  0
 15 16  1  0  0  0
 16 17  2  0  0  0
 17 18  1  0  0  0
 18 19  1  0  0  0
 18 20  1  0  0  0
 18 21  1  0  0  0
  4  5  2  0  0  0
  5  6  1  0  0  0
  6  7  2  0  0  0
  7 22  1  0  0  0
 22 23  2  0  0  0
 22 24  1  0  0  0
 24 26  1  0  0  0
 26 27  2  0  0  0
 27 28  1  0  0  0
 28 29  2  0  0  0
 29 30  1  0  0  0
 30 31  1  0  0  0
 30 32  2  0  0  0
  7  2  1  0  0  0
 32 26  1  0  0  0
 17 12  1  0  0  0
  8 11  1  0  0  0
 24 25  1  0  0  0
M  END
> <minimizedAffinity>
-8.56028

> <CNNscore>
0.2299814373

> <CNNaffinity>
6.1494626999

> <CNN_VS>
1.4142622948

> <CNNaffinity_variance>
0.1125636324

$$$$
[H]c1nc([H])c(C(=O)N([H])c2c([H])c([H])c(C(=O)N([H])c3c([H])c([H])c([H])c(C([H])([H])[H])c3[H])c(Br)c2[H])c(C(F)(F)F)c1[H]


 32 34  0  0  0  0  0  0  0  0999 V2000
    1.2466  -51.5415  -23.4762 Br  0  0  0  0  0  0  0  0  0  0  0  0
    2.4765  -50.1456  -23.0606 C   0  0  0  0  0  0  0  0  0  0  0  0
    3.0339  -49.3953  -24.1033 C   0  0  0  0  0  0  0  0  0  0  0  0
    3.9383  -48.3686  -23.8333 C   0  0  0  0  0  0  0  0  0  0  0  0
    4.2499  -48.1355  -22.5001 C   0  0  0  0  0  0  0  0  0  0  0  0
    3.6919  -48.8824  -21.4744 C   0  0  0  0  0  0  0  0  0  0  0  0
    2.8073  -49.8902  -21.7613 C   0  0  0  0  0  0  0  0  0  0  0  0
    4.5135  -47.6449  -24.9093 N   0  0  0  0  0  0  0  0  0  0  0  0
    4.0405  -46.4263  -25.4084 C   0  0  0  0  0  0  0  0  0  0  0  0
    3.0259  -45.8826  -24.9318 O   0  0  0  0  0  0  0  0  0  0  0  0
    5.3783  -48.0832  -25.3415 H   0  0  0  0  0  0  0  0  0  0  0  0
    4.7910  -45.8039  -26.5233 C   0  0  0  0  0  0  0  0  0  0  0  0
    5.9054  -45.0101  -26.2268 C   0  0  0  0  0  0  0  0  0  0  0  0
    6.5711  -44.4215  -27.1905 N   0  0  0  0  0  0  0  0  0  0  0  0
    6.2340  -44.5426  -28.4685 C   0  0  0  0  0  0  0  0  0  0  0  0
    5.1484  -45.3066  -28.8650 C   0  0  0  0  0  0  0  0  0  0  0  0
    4.4356  -45.9377  -27.8315 C   0  0  0  0  0  0  0  0  0  0  0  0
    3.2860  -46.7872  -28.2526 C   0  0  0  0  0  0  0  0  0  0  0  0
    3.2194  -46.8499  -29.6432 F   0  0  0  0  0  0  0  0  0  0  0  0
    2.0654  -46.3112  -27.8589 F   0  0  0  0  0  0  0  0  0  0  0  0
    3.4604  -48.1325  -27.8924 F   0  0  0  0  0  0  0  0  0  0  0  0
    2.2506  -50.6012  -20.6043 C   0  0  0  0  0  0  0  0  0  0  0  0
    2.9575  -51.5386  -20.1446 O   0  0  0  0  0  0  0  0  0  0  0  0
    1.0141  -50.2482  -20.0470 N   0  0  0  0  0  0  0  0  0  0  0  0
    0.4785  -49.4115  -20.5040 H   0  0  0  0  0  0  0  0  0  0  0  0
    0.4203  -50.8680  -18.9222 C   0  0  0  0  0  0  0  0  0  0  0  0
   -0.2150  -52.1187  -19.1008 C   0  0  0  0  0  0  0  0  0  0  0  0
   -0.8694  -52.8025  -18.1036 C   0  0  0  0  0  0  0  0  0  0  0  0
   -0.9188  -52.2542  -16.8390 C   0  0  0  0  0  0  0  0  0  0  0  0
   -0.3112  -51.0342  -16.6143 C   0  0  0  0  0  0  0  0  0  0  0  0
   -0.3120  -50.3947  -15.2773 C   0  0  0  0  0  0  0  0  0  0  0  0
    0.3295  -50.3888  -17.6519 C   0  0  0  0  0  0  0  0  0  0  0  0
  1  2  1  0  0  0
  2  3  2  0  0  0
  3  4  1  0  0  0
  4  8  1  0  0  0
  8  9  1  0  0  0
  9 10  2  0  0  0
  9 12  1  0  0  0
 12 13  2  0  0  0
 13 14  1  0  0  0
 14 15  2  0  0  0
 15 16  1  0  0  0
 16 17  2  0  0  0
 17 18  1  0  0  0
 18 19  1  0  0  0
 18 20  1  0  0  0
 18 21  1  0  0  0
  4  5  2  0  0  0
  5  6  1  0  0  0
  6  7  2  0  0  0
  7 22  1  0  0  0
 22 23  2  0  0  0
 22 24  1  0  0  0
 24 26  1  0  0  0
 26 27  2  0  0  0
 27 28  1  0  0  0
 28 29  2  0  0  0
 29 30  1  0  0  0
 30 31  1  0  0  0
 30 32  2  0  0  0
  7  2  1  0  0  0
 32 26  1  0  0  0
 17 12  1  0  0  0
  8 11  1  0  0  0
 24 25  1  0  0  0
M  END
> <minimizedAffinity>
-5.78072

> <CNNscore>
0.1964952052

> <CNNaffinity>
5.6268858910

> <CNN_VS>
1.1056561470

> <CNNaffinity_variance>
0.4170660377

$$$$
[H]c1nc([H])c(C(=O)N([H])c2c([H])c([H])c(C(=O)N([H])c3c([H])c([H])c([H])c(C([H])([H])[H])c3[H])c(Br)c2[H])c(C(F)(F)F)c1[H]


 32 34  0  0  0  0  0  0  0  0999 V2000
    0.8638  -50.7681  -18.5198 Br  0  0  0  0  0  0  0  0  0  0  0  0
    0.1327  -52.1003  -19.6708 C   0  0  0  0  0  0  0  0  0  0  0  0
    0.6464  -52.2384  -20.9662 C   0  0  0  0  0  0  0  0  0  0  0  0
    0.1323  -53.2018  -21.8338 C   0  0  0  0  0  0  0  0  0  0  0  0
   -0.8965  -54.0010  -21.3525 C   0  0  0  0  0  0  0  0  0  0  0  0
   -1.3974  -53.8580  -20.0680 C   0  0  0  0  0  0  0  0  0  0  0  0
   -0.8807  -52.9021  -19.2316 C   0  0  0  0  0  0  0  0  0  0  0  0
    0.6479  -53.2997  -23.1518 N   0  0  0  0  0  0  0  0  0  0  0  0
    1.0189  -52.2174  -23.9573 C   0  0  0  0  0  0  0  0  0  0  0  0
    0.8968  -51.0433  -23.5589 O   0  0  0  0  0  0  0  0  0  0  0  0
    0.7607  -54.2875  -23.5238 H   0  0  0  0  0  0  0  0  0  0  0  0
    1.5648  -52.5177  -25.3010 C   0  0  0  0  0  0  0  0  0  0  0  0
    2.9290  -52.8064  -25.4265 C   0  0  0  0  0  0  0  0  0  0  0  0
    3.4466  -53.0461  -26.6066 N   0  0  0  0  0  0  0  0  0  0  0  0
    2.7242  -53.0287  -27.7199 C   0  0  0  0  0  0  0  0  0  0  0  0
    1.3663  -52.7549  -27.7016 C   0  0  0  0  0  0  0  0  0  0  0  0
    0.8119  -52.4986  -26.4361 C   0  0  0  0  0  0  0  0  0  0  0  0
   -0.6544  -52.2348  -26.4045 C   0  0  0  0  0  0  0  0  0  0  0  0
   -0.8974  -50.9217  -26.0062 F   0  0  0  0  0  0  0  0  0  0  0  0
   -1.3428  -53.0106  -25.5125 F   0  0  0  0  0  0  0  0  0  0  0  0
   -1.2292  -52.2792  -27.6842 F   0  0  0  0  0  0  0  0  0  0  0  0
   -1.4589  -52.8516  -17.8835 C   0  0  0  0  0  0  0  0  0  0  0  0
   -0.6520  -53.0413  -16.9335 O   0  0  0  0  0  0  0  0  0  0  0  0
   -2.8215  -52.5995  -17.6746 N   0  0  0  0  0  0  0  0  0  0  0  0
   -3.4420  -52.4320  -18.5593 H   0  0  0  0  0  0  0  0  0  0  0  0
   -3.4499  -52.5134  -16.4098 C   0  0  0  0  0  0  0  0  0  0  0  0
   -3.0026  -51.5252  -15.5025 C   0  0  0  0  0  0  0  0  0  0  0  0
   -3.4944  -51.3665  -14.2284 C   0  0  0  0  0  0  0  0  0  0  0  0
   -4.4909  -52.2118  -13.7869 C   0  0  0  0  0  0  0  0  0  0  0  0
   -4.9623  -53.1926  -14.6376 C   0  0  0  0  0  0  0  0  0  0  0  0
   -6.0419  -54.1246  -14.2345 C   0  0  0  0  0  0  0  0  0  0  0  0
   -4.4312  -53.3100  -15.9056 C   0  0  0  0  0  0  0  0  0  0  0  0
  1  2  1  0  0  0
  2  3  2  0  0  0
  3  4  1  0  0  0
  4  8  1  0  0  0
  8  9  1  0  0  0
  9 10  2  0  0  0
  9 12  1  0  0  0
 12 13  2  0  0  0
 13 14  1  0  0  0
 14 15  2  0  0  0
 15 16  1  0  0  0
 16 17  2  0  0  0
 17 18  1  0  0  0
 18 19  1  0  0  0
 18 20  1  0  0  0
 18 21  1  0  0  0
  4  5  2  0  0  0
  5  6  1  0  0  0
  6  7  2  0  0  0
  7 22  1  0  0  0
 22 23  2  0  0  0
 22 24  1  0  0  0
 24 26  1  0  0  0
 26 27  2  0  0  0
 27 28  1  0  0  0
 28 29  2  0  0  0
 29 30  1  0  0  0
 30 31  1  0  0  0
 30 32  2  0  0  0
  7  2  1  0  0  0
 32 26  1  0  0  0
 17 12  1  0  0  0
  8 11  1  0  0  0
 24 25  1  0  0  0
M  END
> <minimizedAffinity>
-8.63247

> <CNNscore>
0.1894644052

> <CNNaffinity>
6.2559075356

> <CNN_VS>
1.1852718592

> <CNNaffinity_variance>
0.0708305612

$$$$
[H]c1nc([H])c(C(=O)N([H])c2c([H])c([H])c(C(=O)N([H])c3c([H])c([H])c([H])c(C([H])([H])[H])c3[H])c(Br)c2[H])c(C(F)(F)F)c1[H]


 32 34  0  0  0  0  0  0  0  0999 V2000
    2.7538  -50.5871  -26.5697 Br  0  0  0  0  0  0  0  0  0  0  0  0
    3.0811  -49.4258  -25.0938 C   0  0  0  0  0  0  0  0  0  0  0  0
    2.7898  -49.8710  -23.7985 C   0  0  0  0  0  0  0  0  0  0  0  0
    3.0156  -49.0454  -22.6974 C   0  0  0  0  0  0  0  0  0  0  0  0
    3.5349  -47.7825  -22.9507 C   0  0  0  0  0  0  0  0  0  0  0  0
    3.8216  -47.3510  -24.2363 C   0  0  0  0  0  0  0  0  0  0  0  0
    3.5889  -48.1768  -25.3059 C   0  0  0  0  0  0  0  0  0  0  0  0
    2.6818  -49.5080  -21.3986 N   0  0  0  0  0  0  0  0  0  0  0  0
    1.6003  -49.0580  -20.6332 C   0  0  0  0  0  0  0  0  0  0  0  0
    0.8371  -48.1675  -21.0534 O   0  0  0  0  0  0  0  0  0  0  0  0
    3.3155  -50.2651  -21.0086 H   0  0  0  0  0  0  0  0  0  0  0  0
    1.3936  -49.6803  -19.3052 C   0  0  0  0  0  0  0  0  0  0  0  0
    0.4468  -50.7040  -19.1793 C   0  0  0  0  0  0  0  0  0  0  0  0
    0.2203  -51.2527  -18.0106 N   0  0  0  0  0  0  0  0  0  0  0  0
    0.8598  -50.8777  -16.9098 C   0  0  0  0  0  0  0  0  0  0  0  0
    1.8154  -49.8749  -16.9297 C   0  0  0  0  0  0  0  0  0  0  0  0
    2.0582  -49.2874  -18.1829 C   0  0  0  0  0  0  0  0  0  0  0  0
    3.1078  -48.2302  -18.2184 C   0  0  0  0  0  0  0  0  0  0  0  0
    3.4757  -47.8753  -16.9220 F   0  0  0  0  0  0  0  0  0  0  0  0
    2.7053  -47.0625  -18.8065 F   0  0  0  0  0  0  0  0  0  0  0  0
    4.3139  -48.6979  -18.7629 F   0  0  0  0  0  0  0  0  0  0  0  0
    3.9536  -47.6379  -26.6215 C   0  0  0  0  0  0  0  0  0  0  0  0
    5.0747  -48.0000  -27.0707 O   0  0  0  0  0  0  0  0  0  0  0  0
    3.0999  -46.7818  -27.3301 N   0  0  0  0  0  0  0  0  0  0  0  0
    2.1405  -46.5345  -26.8674 H   0  0  0  0  0  0  0  0  0  0  0  0
    3.3679  -46.2387  -28.6089 C   0  0  0  0  0  0  0  0  0  0  0  0
    4.1671  -45.0750  -28.6912 C   0  0  0  0  0  0  0  0  0  0  0  0
    4.4623  -44.4216  -29.8644 C   0  0  0  0  0  0  0  0  0  0  0  0
    3.9606  -44.9173  -31.0496 C   0  0  0  0  0  0  0  0  0  0  0  0
    3.1754  -46.0534  -31.0209 C   0  0  0  0  0  0  0  0  0  0  0  0
    2.6167  -46.6493  -32.2576 C   0  0  0  0  0  0  0  0  0  0  0  0
    2.9074  -46.6682  -29.8152 C   0  0  0  0  0  0  0  0  0  0  0  0
  1  2  1  0  0  0
  2  3  2  0  0  0
  3  4  1  0  0  0
  4  8  1  0  0  0
  8  9  1  0  0  0
  9 10  2  0  0  0
  9 12  1  0  0  0
 12 13  2  0  0  0
 13 14  1  0  0  0
 14 15  2  0  0  0
 15 16  1  0  0  0
 16 17  2  0  0  0
 17 18  1  0  0  0
 18 19  1  0  0  0
 18 20  1  0  0  0
 18 21  1  0  0  0
  4  5  2  0  0  0
  5  6  1  0  0  0
  6  7  2  0  0  0
  7 22  1  0  0  0
 22 23  2  0  0  0
 22 24  1  0  0  0
 24 26  1  0  0  0
 26 27  2  0  0  0
 27 28  1  0  0  0
 28 29  2  0  0  0
 29 30  1  0  0  0
 30 31  1  0  0  0
 30 32  2  0  0  0
  7  2  1  0  0  0
 32 26  1  0  0  0
 17 12  1  0  0  0
  8 11  1  0  0  0
 24 25  1  0  0  0
M  END
> <minimizedAffinity>
-5.58495

> <CNNscore>
0.1484146714

> <CNNaffinity>
5.4248785973

> <CNN_VS>
0.8051315546

> <CNNaffinity_variance>
0.2478024065

$$$$
[H]c1nc([H])c(C(=O)N([H])c2c([H])c([H])c(C(=O)N([H])c3c([H])c([H])c([H])c(C([H])([H])[H])c3[H])c(Br)c2[H])c(C(F)(F)F)c1[H]


 32 34  0  0  0  0  0  0  0  0999 V2000
   -1.2599  -53.7487  -21.0246 Br  0  0  0  0  0  0  0  0  0  0  0  0
   -0.0990  -52.2381  -20.9586 C   0  0  0  0  0  0  0  0  0  0  0  0
    0.1663  -51.6357  -19.7227 C   0  0  0  0  0  0  0  0  0  0  0  0
    1.0094  -50.5278  -19.6402 C   0  0  0  0  0  0  0  0  0  0  0  0
    1.5607  -50.0638  -20.8274 C   0  0  0  0  0  0  0  0  0  0  0  0
    1.2936  -50.6676  -22.0462 C   0  0  0  0  0  0  0  0  0  0  0  0
    0.4588  -51.7537  -22.1063 C   0  0  0  0  0  0  0  0  0  0  0  0
    1.2362  -49.9161  -18.3806 N   0  0  0  0  0  0  0  0  0  0  0  0
    2.2063  -50.3112  -17.4528 C   0  0  0  0  0  0  0  0  0  0  0  0
    2.9548  -51.2822  -17.6741 O   0  0  0  0  0  0  0  0  0  0  0  0
    0.6115  -49.0870  -18.1585 H   0  0  0  0  0  0  0  0  0  0  0  0
    2.3132  -49.5317  -16.1980 C   0  0  0  0  0  0  0  0  0  0  0  0
    3.3684  -48.6226  -16.0557 C   0  0  0  0  0  0  0  0  0  0  0  0
    3.5064  -47.9410  -14.9446 N   0  0  0  0  0  0  0  0  0  0  0  0
    2.6744  -48.0717  -13.9188 C   0  0  0  0  0  0  0  0  0  0  0  0
    1.5988  -48.9438  -13.9613 C   0  0  0  0  0  0  0  0  0  0  0  0
    1.4511  -49.6738  -15.1529 C   0  0  0  0  0  0  0  0  0  0  0  0
    0.2780  -50.5903  -15.2184 C   0  0  0  0  0  0  0  0  0  0  0  0
   -0.3610  -50.6414  -13.9810 F   0  0  0  0  0  0  0  0  0  0  0  0
    0.5982  -51.8884  -15.5075 F   0  0  0  0  0  0  0  0  0  0  0  0
   -0.7299  -50.1024  -16.0647 F   0  0  0  0  0  0  0  0  0  0  0  0
    0.2643  -52.3381  -23.4385 C   0  0  0  0  0  0  0  0  0  0  0  0
    0.1695  -53.5947  -23.4775 O   0  0  0  0  0  0  0  0  0  0  0  0
    0.1820  -51.5412  -24.5884 N   0  0  0  0  0  0  0  0  0  0  0  0
    0.2602  -50.4586  -24.4550 H   0  0  0  0  0  0  0  0  0  0  0  0
   -0.0255  -52.0244  -25.9019 C   0  0  0  0  0  0  0  0  0  0  0  0
    1.1040  -52.3897  -26.6703 C   0  0  0  0  0  0  0  0  0  0  0  0
    1.0442  -52.8274  -27.9724 C   0  0  0  0  0  0  0  0  0  0  0  0
   -0.1861  -52.9279  -28.5875 C   0  0  0  0  0  0  0  0  0  0  0  0
   -1.3197  -52.5838  -27.8771 C   0  0  0  0  0  0  0  0  0  0  0  0
   -2.6743  -52.6826  -28.4703 C   0  0  0  0  0  0  0  0  0  0  0  0
   -1.2026  -52.1474  -26.5735 C   0  0  0  0  0  0  0  0  0  0  0  0
  1  2  1  0  0  0
  2  3  2  0  0  0
  3  4  1  0  0  0
  4  8  1  0  0  0
  8  9  1  0  0  0
  9 10  2  0  0  0
  9 12  1  0  0  0
 12 13  2  0  0  0
 13 14  1  0  0  0
 14 15  2  0  0  0
 15 16  1  0  0  0
 16 17  2  0  0  0
 17 18  1  0  0  0
 18 19  1  0  0  0
 18 20  1  0  0  0
 18 21  1  0  0  0
  4  5  2  0  0  0
  5  6  1  0  0  0
  6  7  2  0  0  0
  7 22  1  0  0  0
 22 23  2  0  0  0
 22 24  1  0  0  0
 24 26  1  0  0  0
 26 27  2  0  0  0
 27 28  1  0  0  0
 28 29  2  0  0  0
 29 30  1  0  0  0
 30 31  1  0  0  0
 30 32  2  0  0  0
  7  2  1  0  0  0
 32 26  1  0  0  0
 17 12  1  0  0  0
  8 11  1  0  0  0
 24 25  1  0  0  0
M  END
> <minimizedAffinity>
-7.84974

> <CNNscore>
0.1461295784

> <CNNaffinity>
5.9721612930

> <CNN_VS>
0.8727093935

> <CNNaffinity_variance>
0.0809711367

$$$$
[H]c1nc([H])c(C(=O)N([H])c2c([H])c([H])c(C(=O)N([H])c3c([H])c([H])c([H])c(C([H])([H])[H])c3[H])c(Br)c2[H])c(C(F)(F)F)c1[H]


 32 34  0  0  0  0  0  0  0  0999 V2000
   -0.5343  -54.5960  -21.8793 Br  0  0  0  0  0  0  0  0  0  0  0  0
    0.0470  -52.9624  -21.0872 C   0  0  0  0  0  0  0  0  0  0  0  0
    0.1192  -52.8693  -19.6918 C   0  0  0  0  0  0  0  0  0  0  0  0
    0.5385  -51.6878  -19.0808 C   0  0  0  0  0  0  0  0  0  0  0  0
    0.8739  -50.6295  -19.9153 C   0  0  0  0  0  0  0  0  0  0  0  0
    0.8008  -50.7315  -21.2957 C   0  0  0  0  0  0  0  0  0  0  0  0
    0.3825  -51.9009  -21.8768 C   0  0  0  0  0  0  0  0  0  0  0  0
    0.5720  -51.6086  -17.6648 N   0  0  0  0  0  0  0  0  0  0  0  0
    0.5895  -50.4232  -16.9215 C   0  0  0  0  0  0  0  0  0  0  0  0
    0.5970  -49.3098  -17.4805 O   0  0  0  0  0  0  0  0  0  0  0  0
    0.5707  -52.5408  -17.1570 H   0  0  0  0  0  0  0  0  0  0  0  0
    0.5964  -50.5393  -15.4450 C   0  0  0  0  0  0  0  0  0  0  0  0
    1.8224  -50.6860  -14.7851 C   0  0  0  0  0  0  0  0  0  0  0  0
    1.8578  -50.8217  -13.4818 N   0  0  0  0  0  0  0  0  0  0  0  0
    0.7609  -50.8275  -12.7346 C   0  0  0  0  0  0  0  0  0  0  0  0
   -0.4997  -50.6878  -13.2921 C   0  0  0  0  0  0  0  0  0  0  0  0
   -0.5368  -50.5418  -14.6891 C   0  0  0  0  0  0  0  0  0  0  0  0
   -1.8869  -50.3588  -15.2929 C   0  0  0  0  0  0  0  0  0  0  0  0
   -1.9775  -49.1053  -15.8950 F   0  0  0  0  0  0  0  0  0  0  0  0
   -2.9130  -50.3946  -14.3890 F   0  0  0  0  0  0  0  0  0  0  0  0
   -2.1102  -51.2330  -16.3681 F   0  0  0  0  0  0  0  0  0  0  0  0
    0.3686  -51.9167  -23.3444 C   0  0  0  0  0  0  0  0  0  0  0  0
    1.3919  -51.4421  -23.9075 O   0  0  0  0  0  0  0  0  0  0  0  0
   -0.7148  -52.4360  -24.0659 N   0  0  0  0  0  0  0  0  0  0  0  0
   -1.5527  -52.8401  -23.4912 H   0  0  0  0  0  0  0  0  0  0  0  0
   -0.7955  -52.5072  -25.4767 C   0  0  0  0  0  0  0  0  0  0  0  0
   -1.9714  -52.0390  -26.1075 C   0  0  0  0  0  0  0  0  0  0  0  0
   -2.1960  -52.0949  -27.4628 C   0  0  0  0  0  0  0  0  0  0  0  0
   -1.2244  -52.6348  -28.2792 C   0  0  0  0  0  0  0  0  0  0  0  0
   -0.0568  -53.1045  -27.7098 C   0  0  0  0  0  0  0  0  0  0  0  0
    1.0352  -53.6823  -28.5286 C   0  0  0  0  0  0  0  0  0  0  0  0
    0.1159  -53.0269  -26.3432 C   0  0  0  0  0  0  0  0  0  0  0  0
  1  2  1  0  0  0
  2  3  2  0  0  0
  3  4  1  0  0  0
  4  8  1  0  0  0
  8  9  1  0  0  0
  9 10  2  0  0  0
  9 12  1  0  0  0
 12 13  2  0  0  0
 13 14  1  0  0  0
 14 15  2  0  0  0
 15 16  1  0  0  0
 16 17  2  0  0  0
 17 18  1  0  0  0
 18 19  1  0  0  0
 18 20  1  0  0  0
 18 21  1  0  0  0
  4  5  2  0  0  0
  5  6  1  0  0  0
  6  7  2  0  0  0
  7 22  1  0  0  0
 22 23  2  0  0  0
 22 24  1  0  0  0
 24 26  1  0  0  0
 26 27  2  0  0  0
 27 28  1  0  0  0
 28 29  2  0  0  0
 29 30  1  0  0  0
 30 31  1  0  0  0
 30 32  2  0  0  0
  7  2  1  0  0  0
 32 26  1  0  0  0
 17 12  1  0  0  0
  8 11  1  0  0  0
 24 25  1  0  0  0
M  END
> <minimizedAffinity>
-7.94430

> <CNNscore>
0.1438114345

> <CNNaffinity>
5.9494161606

> <CNN_VS>
0.8555940986

> <CNNaffinity_variance>
0.1161704287

$$$$
[H]c1nc([H])c(C(=O)N([H])c2c([H])c([H])c(C(=O)N([H])c3c([H])c([H])c([H])c(C([H])([H])[H])c3[H])c(Br)c2[H])c(C(F)(F)F)c1[H]


 32 34  0  0  0  0  0  0  0  0999 V2000
   -1.4832  -54.0943  -21.3562 Br  0  0  0  0  0  0  0  0  0  0  0  0
   -0.2764  -52.6206  -21.2808 C   0  0  0  0  0  0  0  0  0  0  0  0
    0.1370  -52.1414  -20.0316 C   0  0  0  0  0  0  0  0  0  0  0  0
    1.0174  -51.0635  -19.9417 C   0  0  0  0  0  0  0  0  0  0  0  0
    1.4533  -50.5025  -21.1350 C   0  0  0  0  0  0  0  0  0  0  0  0
    1.0399  -50.9847  -22.3670 C   0  0  0  0  0  0  0  0  0  0  0  0
    0.1707  -52.0432  -22.4338 C   0  0  0  0  0  0  0  0  0  0  0  0
    1.3954  -50.5764  -18.6641 N   0  0  0  0  0  0  0  0  0  0  0  0
    2.6076  -50.8498  -18.0207 C   0  0  0  0  0  0  0  0  0  0  0  0
    3.4644  -51.5881  -18.5429 O   0  0  0  0  0  0  0  0  0  0  0  0
    0.6850  -49.9467  -18.1889 H   0  0  0  0  0  0  0  0  0  0  0  0
    2.8368  -50.2277  -16.6963 C   0  0  0  0  0  0  0  0  0  0  0  0
    2.4300  -50.9164  -15.5473 C   0  0  0  0  0  0  0  0  0  0  0  0
    2.5920  -50.3776  -14.3634 N   0  0  0  0  0  0  0  0  0  0  0  0
    3.1370  -49.1796  -14.1927 C   0  0  0  0  0  0  0  0  0  0  0  0
    3.5729  -48.4193  -15.2657 C   0  0  0  0  0  0  0  0  0  0  0  0
    3.3994  -48.9976  -16.5345 C   0  0  0  0  0  0  0  0  0  0  0  0
    3.8951  -48.1998  -17.6913 C   0  0  0  0  0  0  0  0  0  0  0  0
    4.5102  -47.0330  -17.2414 F   0  0  0  0  0  0  0  0  0  0  0  0
    2.9106  -47.7778  -18.5422 F   0  0  0  0  0  0  0  0  0  0  0  0
    4.9328  -48.8490  -18.3781 F   0  0  0  0  0  0  0  0  0  0  0  0
   -0.1821  -52.4969  -23.7843 C   0  0  0  0  0  0  0  0  0  0  0  0
   -0.1160  -53.7408  -23.9795 O   0  0  0  0  0  0  0  0  0  0  0  0
   -0.5745  -51.5979  -24.7852 N   0  0  0  0  0  0  0  0  0  0  0  0
   -0.6168  -50.5382  -24.5190 H   0  0  0  0  0  0  0  0  0  0  0  0
   -0.9499  -51.9565  -26.1014 C   0  0  0  0  0  0  0  0  0  0  0  0
   -2.3248  -51.9570  -26.4320 C   0  0  0  0  0  0  0  0  0  0  0  0
   -2.8250  -52.3300  -27.6572 C   0  0  0  0  0  0  0  0  0  0  0  0
   -1.9475  -52.7294  -28.6434 C   0  0  0  0  0  0  0  0  0  0  0  0
   -0.5938  -52.7444  -28.3689 C   0  0  0  0  0  0  0  0  0  0  0  0
    0.4060  -53.1471  -29.3862 C   0  0  0  0  0  0  0  0  0  0  0  0
   -0.1457  -52.3630  -27.1210 C   0  0  0  0  0  0  0  0  0  0  0  0
  1  2  1  0  0  0
  2  3  2  0  0  0
  3  4  1  0  0  0
  4  8  1  0  0  0
  8  9  1  0  0  0
  9 10  2  0  0  0
  9 12  1  0  0  0
 12 13  2  0  0  0
 13 14  1  0  0  0
 14 15  2  0  0  0
 15 16  1  0  0  0
 16 17  2  0  0  0
 17 18  1  0  0  0
 18 19  1  0  0  0
 18 20  1  0  0  0
 18 21  1  0  0  0
  4  5  2  0  0  0
  5  6  1  0  0  0
  6  7  2  0  0  0
  7 22  1  0  0  0
 22 23  2  0  0  0
 22 24  1  0  0  0
 24 26  1  0  0  0
 26 27  2  0  0  0
 27 28  1  0  0  0
 28 29  2  0  0  0
 29 30  1  0  0  0
 30 31  1  0  0  0
 30 32  2  0  0  0
  7  2  1  0  0  0
 32 26  1  0  0  0
 17 12  1  0  0  0
  8 11  1  0  0  0
 24 25  1  0  0  0
M  END
> <minimizedAffinity>
-7.98196

> <CNNscore>
0.1432118714

> <CNNaffinity>
5.9749574661

> <CNN_VS>
0.8556848168

> <CNNaffinity_variance>
0.1317346394

$$$$
[H]c1nc(N([H])c2c([H])c([H])c(N3C([H])([H])C([H])([H])OC([H])([H])C3([H])[H])c([H])c2OC([H])([H])[H])nc(N([H])c2c([H])c([H])c([H])c([H])c2S(=O)(=O)C([H])(C([H])([H])[H])C([H])([H])[H])c1Cl


 37 40  0  0  0  0  0  0  0  0999 V2000
   -0.8447  -53.5302  -20.2365 C   0  0  0  0  0  0  0  0  0  0  0  0
   -1.3782  -54.4668  -21.0209 N   0  0  0  0  0  0  0  0  0  0  0  0
   -1.2484  -54.5130  -22.3508 C   0  0  0  0  0  0  0  0  0  0  0  0
   -0.5085  -53.5151  -22.9335 C   0  0  0  0  0  0  0  0  0  0  0  0
   -0.2982  -53.5124  -24.6563 Cl  0  0  0  0  0  0  0  0  0  0  0  0
    0.0938  -52.4821  -22.1838 C   0  0  0  0  0  0  0  0  0  0  0  0
   -0.1197  -52.5643  -20.8752 N   0  0  0  0  0  0  0  0  0  0  0  0
   -0.9705  -53.4675  -18.8293 N   0  0  0  0  0  0  0  0  0  0  0  0
   -1.2425  -54.4049  -18.3532 H   0  0  0  0  0  0  0  0  0  0  0  0
   -1.7380  -52.1399  -16.9498 C   0  0  0  0  0  0  0  0  0  0  0  0
   -1.6048  -51.0827  -16.0911 C   0  0  0  0  0  0  0  0  0  0  0  0
   -0.5633  -50.1880  -16.1581 C   0  0  0  0  0  0  0  0  0  0  0  0
    0.3639  -50.4062  -17.1513 C   0  0  0  0  0  0  0  0  0  0  0  0
    0.2457  -51.4867  -18.0442 C   0  0  0  0  0  0  0  0  0  0  0  0
   -0.7956  -52.3750  -17.9713 C   0  0  0  0  0  0  0  0  0  0  0  0
   -0.4505  -49.1027  -15.2502 N   0  0  0  0  0  0  0  0  0  0  0  0
   -1.4225  -48.0482  -15.3186 C   0  0  0  0  0  0  0  0  0  0  0  0
   -1.1880  -47.0299  -14.2454 C   0  0  0  0  0  0  0  0  0  0  0  0
    0.1684  -46.6988  -14.2614 O   0  0  0  0  0  0  0  0  0  0  0  0
    0.8415  -47.7469  -13.6356 C   0  0  0  0  0  0  0  0  0  0  0  0
    0.6130  -49.0629  -14.2894 C   0  0  0  0  0  0  0  0  0  0  0  0
   -3.9839  -52.6624  -16.1370 C   0  0  0  0  0  0  0  0  0  0  0  0
   -2.8017  -52.9881  -16.8209 O   0  0  0  0  0  0  0  0  0  0  0  0
    0.8331  -51.5255  -22.8733 N   0  0  0  0  0  0  0  0  0  0  0  0
    0.9808  -51.6924  -23.8957 H   0  0  0  0  0  0  0  0  0  0  0  0
    1.3888  -50.3598  -22.3342 C   0  0  0  0  0  0  0  0  0  0  0  0
    0.8488  -49.5506  -21.3684 C   0  0  0  0  0  0  0  0  0  0  0  0
    1.4586  -48.3841  -20.8939 C   0  0  0  0  0  0  0  0  0  0  0  0
    2.6655  -48.0130  -21.4135 C   0  0  0  0  0  0  0  0  0  0  0  0
    3.2589  -48.7843  -22.3866 C   0  0  0  0  0  0  0  0  0  0  0  0
    2.6398  -49.9271  -22.8359 C   0  0  0  0  0  0  0  0  0  0  0  0
    3.4160  -50.8785  -24.0569 S   0  0  0  0  0  0  0  0  0  0  0  0
    4.8590  -50.4750  -24.2253 O   0  0  0  0  0  0  0  0  0  0  0  0
    3.2597  -52.3608  -23.8210 O   0  0  0  0  0  0  0  0  0  0  0  0
    2.5815  -50.5874  -25.6250 C   0  0  0  0  0  0  0  0  0  0  0  0
    3.2158  -49.5105  -26.4295 C   0  0  0  0  0  0  0  0  0  0  0  0
    2.7117  -51.9412  -26.3620 C   0  0  0  0  0  0  0  0  0  0  0  0
 22 23  1  0  0  0
 23 10  1  0  0  0
 10 11  2  0  0  0
 11 12  1  0  0  0
 12 13  2  0  0  0
 13 14  1  0  0  0
 14 15  2  0  0  0
 15  8  1  0  0  0
  8  1  1  0  0  0
  1  2  2  0  0  0
  2  3  1  0  0  0
  3  4  2  0  0  0
  4  5  1  0  0  0
  4  6  1  0  0  0
  6 24  1  0  0  0
 24 26  1  0  0  0
 26 27  2  0  0  0
 27 28  1  0  0  0
 28 29  2  0  0  0
 29 30  1  0  0  0
 30 31  2  0  0  0
 31 32  1  0  0  0
 32 33  2  0  0  0
 32 34  2  0  0  0
 32 35  1  0  0  0
 35 36  1  0  0  0
 35 37  1  0  0  0
  6  7  2  0  0  0
 12 16  1  0  0  0
 16 17  1  0  0  0
 17 18  1  0  0  0
 18 19  1  0  0  0
 19 20  1  0  0  0
 20 21  1  0  0  0
 15 10  1  0  0  0
  7  1  1  0  0  0
 21 16  1  0  0  0
 31 26  1  0  0  0
  8  9  1  0  0  0
 24 25  1  0  0  0
M  END
> <minimizedAffinity>
-7.65659

> <CNNscore>
0.6989191175

> <CNNaffinity>
7.3612494469

> <CNN_VS>
5.1449179649

> <CNNaffinity_variance>
0.0816430822

$$$$
[H]c1nc(N([H])c2c([H])c([H])c(N3C([H])([H])C([H])([H])OC([H])([H])C3([H])[H])c([H])c2OC([H])([H])[H])nc(N([H])c2c([H])c([H])c([H])c([H])c2S(=O)(=O)C([H])(C([H])([H])[H])C([H])([H])[H])c1Cl


 37 40  0  0  0  0  0  0  0  0999 V2000
    0.4955  -53.0918  -22.2303 C   0  0  0  0  0  0  0  0  0  0  0  0
   -0.2297  -54.0710  -21.6896 N   0  0  0  0  0  0  0  0  0  0  0  0
   -0.7342  -54.0525  -20.4516 C   0  0  0  0  0  0  0  0  0  0  0  0
   -0.4765  -52.9358  -19.6970 C   0  0  0  0  0  0  0  0  0  0  0  0
   -1.1008  -52.8436  -18.0802 Cl  0  0  0  0  0  0  0  0  0  0  0  0
    0.2814  -51.8499  -20.1850 C   0  0  0  0  0  0  0  0  0  0  0  0
    0.7180  -52.0072  -21.4298 N   0  0  0  0  0  0  0  0  0  0  0  0
    1.0348  -53.0943  -23.5377 N   0  0  0  0  0  0  0  0  0  0  0  0
    0.7289  -53.9332  -24.1559 H   0  0  0  0  0  0  0  0  0  0  0  0
    1.4057  -51.3088  -25.1371 C   0  0  0  0  0  0  0  0  0  0  0  0
    2.2192  -50.3967  -25.7530 C   0  0  0  0  0  0  0  0  0  0  0  0
    3.5537  -50.2586  -25.4534 C   0  0  0  0  0  0  0  0  0  0  0  0
    4.0499  -51.0985  -24.4828 C   0  0  0  0  0  0  0  0  0  0  0  0
    3.2310  -52.0428  -23.8376 C   0  0  0  0  0  0  0  0  0  0  0  0
    1.9010  -52.1748  -24.1414 C   0  0  0  0  0  0  0  0  0  0  0  0
    4.3713  -49.3001  -26.1073 N   0  0  0  0  0  0  0  0  0  0  0  0
    3.9494  -48.7961  -27.3838 C   0  0  0  0  0  0  0  0  0  0  0  0
    4.8938  -47.7483  -27.8875 C   0  0  0  0  0  0  0  0  0  0  0  0
    6.1919  -48.2453  -27.7543 O   0  0  0  0  0  0  0  0  0  0  0  0
    6.5272  -48.1267  -26.4064 C   0  0  0  0  0  0  0  0  0  0  0  0
    5.5916  -48.8494  -25.5043 C   0  0  0  0  0  0  0  0  0  0  0  0
   -0.3779  -52.0430  -26.6397 C   0  0  0  0  0  0  0  0  0  0  0  0
    0.0875  -51.3874  -25.4885 O   0  0  0  0  0  0  0  0  0  0  0  0
    0.4739  -50.7605  -19.3404 N   0  0  0  0  0  0  0  0  0  0  0  0
   -0.0045  -50.7964  -18.4104 H   0  0  0  0  0  0  0  0  0  0  0  0
    1.2512  -49.6287  -19.6106 C   0  0  0  0  0  0  0  0  0  0  0  0
    1.2518  -48.8740  -20.7550 C   0  0  0  0  0  0  0  0  0  0  0  0
    2.0776  -47.7632  -20.9594 C   0  0  0  0  0  0  0  0  0  0  0  0
    2.9427  -47.3938  -19.9698 C   0  0  0  0  0  0  0  0  0  0  0  0
    2.9891  -48.1123  -18.7969 C   0  0  0  0  0  0  0  0  0  0  0  0
    2.1665  -49.2000  -18.6196 C   0  0  0  0  0  0  0  0  0  0  0  0
    2.2454  -50.0789  -17.1297 S   0  0  0  0  0  0  0  0  0  0  0  0
    0.8657  -50.3631  -16.5921 O   0  0  0  0  0  0  0  0  0  0  0  0
    3.0856  -51.3276  -17.2391 O   0  0  0  0  0  0  0  0  0  0  0  0
    3.1069  -49.0683  -15.9146 C   0  0  0  0  0  0  0  0  0  0  0  0
    2.2207  -48.0769  -15.2503 C   0  0  0  0  0  0  0  0  0  0  0  0
    3.6131  -50.0994  -14.8784 C   0  0  0  0  0  0  0  0  0  0  0  0
 22 23  1  0  0  0
 23 10  1  0  0  0
 10 11  2  0  0  0
 11 12  1  0  0  0
 12 13  2  0  0  0
 13 14  1  0  0  0
 14 15  2  0  0  0
 15  8  1  0  0  0
  8  1  1  0  0  0
  1  2  2  0  0  0
  2  3  1  0  0  0
  3  4  2  0  0  0
  4  5  1  0  0  0
  4  6  1  0  0  0
  6 24  1  0  0  0
 24 26  1  0  0  0
 26 27  2  0  0  0
 27 28  1  0  0  0
 28 29  2  0  0  0
 29 30  1  0  0  0
 30 31  2  0  0  0
 31 32  1  0  0  0
 32 33  2  0  0  0
 32 34  2  0  0  0
 32 35  1  0  0  0
 35 36  1  0  0  0
 35 37  1  0  0  0
  6  7  2  0  0  0
 12 16  1  0  0  0
 16 17  1  0  0  0
 17 18  1  0  0  0
 18 19  1  0  0  0
 19 20  1  0  0  0
 20 21  1  0  0  0
 15 10  1  0  0  0
  7  1  1  0  0  0
 21 16  1  0  0  0
 31 26  1  0  0  0
  8  9  1  0  0  0
 24 25  1  0  0  0
M  END
> <minimizedAffinity>
-6.68103

> <CNNscore>
0.2264574319

> <CNNaffinity>
6.8219819069

> <CNN_VS>
1.5448884964

> <CNNaffinity_variance>
0.1179844588

$$$$
[H]c1nc(N([H])c2c([H])c([H])c(N3C([H])([H])C([H])([H])OC([H])([H])C3([H])[H])c([H])c2OC([H])([H])[H])nc(N([H])c2c([H])c([H])c([H])c([H])c2S(=O)(=O)C([H])(C([H])([H])[H])C([H])([H])[H])c1Cl


 37 40  0  0  0  0  0  0  0  0999 V2000
    0.4528  -52.5062  -20.4701 C   0  0  0  0  0  0  0  0  0  0  0  0
   -0.5520  -53.2890  -20.0767 N   0  0  0  0  0  0  0  0  0  0  0  0
   -1.2017  -54.1509  -20.8657 C   0  0  0  0  0  0  0  0  0  0  0  0
   -0.7906  -54.2212  -22.1730 C   0  0  0  0  0  0  0  0  0  0  0  0
   -1.5895  -55.3188  -23.2543 Cl  0  0  0  0  0  0  0  0  0  0  0  0
    0.2638  -53.4313  -22.6791 C   0  0  0  0  0  0  0  0  0  0  0  0
    0.8159  -52.6217  -21.7821 N   0  0  0  0  0  0  0  0  0  0  0  0
    1.1517  -51.5911  -19.6488 N   0  0  0  0  0  0  0  0  0  0  0  0
    2.1665  -51.3738  -19.9687 H   0  0  0  0  0  0  0  0  0  0  0  0
    1.3175  -49.7064  -18.1310 C   0  0  0  0  0  0  0  0  0  0  0  0
    0.9280  -49.0312  -17.0061 C   0  0  0  0  0  0  0  0  0  0  0  0
   -0.0534  -49.4879  -16.1588 C   0  0  0  0  0  0  0  0  0  0  0  0
   -0.6428  -50.6842  -16.4984 C   0  0  0  0  0  0  0  0  0  0  0  0
   -0.2572  -51.3940  -17.6500 C   0  0  0  0  0  0  0  0  0  0  0  0
    0.7221  -50.9323  -18.4905 C   0  0  0  0  0  0  0  0  0  0  0  0
   -0.4384  -48.7627  -15.0009 N   0  0  0  0  0  0  0  0  0  0  0  0
   -0.9765  -49.4886  -13.8851 C   0  0  0  0  0  0  0  0  0  0  0  0
   -1.2594  -48.5733  -12.7337 C   0  0  0  0  0  0  0  0  0  0  0  0
   -1.9654  -47.4741  -13.2268 O   0  0  0  0  0  0  0  0  0  0  0  0
   -1.0326  -46.6523  -13.8576 C   0  0  0  0  0  0  0  0  0  0  0  0
   -0.2935  -47.3372  -14.9513 C   0  0  0  0  0  0  0  0  0  0  0  0
    2.0800  -48.2111  -19.9088 C   0  0  0  0  0  0  0  0  0  0  0  0
    2.3014  -49.1887  -18.9256 O   0  0  0  0  0  0  0  0  0  0  0  0
    0.6087  -53.5893  -24.0182 N   0  0  0  0  0  0  0  0  0  0  0  0
    0.1960  -54.4120  -24.5161 H   0  0  0  0  0  0  0  0  0  0  0  0
    1.4447  -52.7506  -24.7638 C   0  0  0  0  0  0  0  0  0  0  0  0
    2.6055  -52.1510  -24.3489 C   0  0  0  0  0  0  0  0  0  0  0  0
    3.3789  -51.3043  -25.1505 C   0  0  0  0  0  0  0  0  0  0  0  0
    2.9676  -51.0477  -26.4269 C   0  0  0  0  0  0  0  0  0  0  0  0
    1.8097  -51.6202  -26.9018 C   0  0  0  0  0  0  0  0  0  0  0  0
    1.0672  -52.4497  -26.0945 C   0  0  0  0  0  0  0  0  0  0  0  0
   -0.3815  -53.1588  -26.7246 S   0  0  0  0  0  0  0  0  0  0  0  0
   -0.1964  -54.6319  -26.9873 O   0  0  0  0  0  0  0  0  0  0  0  0
   -1.5858  -52.8784  -25.8596 O   0  0  0  0  0  0  0  0  0  0  0  0
   -0.7685  -52.3690  -28.2951 C   0  0  0  0  0  0  0  0  0  0  0  0
   -0.1167  -53.0319  -29.4549 C   0  0  0  0  0  0  0  0  0  0  0  0
   -2.3051  -52.5102  -28.4033 C   0  0  0  0  0  0  0  0  0  0  0  0
 22 23  1  0  0  0
 23 10  1  0  0  0
 10 11  2  0  0  0
 11 12  1  0  0  0
 12 13  2  0  0  0
 13 14  1  0  0  0
 14 15  2  0  0  0
 15  8  1  0  0  0
  8  1  1  0  0  0
  1  2  2  0  0  0
  2  3  1  0  0  0
  3  4  2  0  0  0
  4  5  1  0  0  0
  4  6  1  0  0  0
  6 24  1  0  0  0
 24 26  1  0  0  0
 26 27  2  0  0  0
 27 28  1  0  0  0
 28 29  2  0  0  0
 29 30  1  0  0  0
 30 31  2  0  0  0
 31 32  1  0  0  0
 32 33  2  0  0  0
 32 34  2  0  0  0
 32 35  1  0  0  0
 35 36  1  0  0  0
 35 37  1  0  0  0
  6  7  2  0  0  0
 12 16  1  0  0  0
 16 17  1  0  0  0
 17 18  1  0  0  0
 18 19  1  0  0  0
 19 20  1  0  0  0
 20 21  1  0  0  0
 15 10  1  0  0  0
  7  1  1  0  0  0
 21 16  1  0  0  0
 31 26  1  0  0  0
  8  9  1  0  0  0
 24 25  1  0  0  0
M  END
> <minimizedAffinity>
-7.82218

> <CNNscore>
0.2208585441

> <CNNaffinity>
6.9465956688

> <CNN_VS>
1.5342149734

> <CNNaffinity_variance>
0.2623361349

$$$$
[H]c1nc(N([H])c2c([H])c([H])c(N3C([H])([H])C([H])([H])OC([H])([H])C3([H])[H])c([H])c2OC([H])([H])[H])nc(N([H])c2c([H])c([H])c([H])c([H])c2S(=O)(=O)C([H])(C([H])([H])[H])C([H])([H])[H])c1Cl


 37 40  0  0  0  0  0  0  0  0999 V2000
    0.0075  -52.1180  -20.3184 C   0  0  0  0  0  0  0  0  0  0  0  0
   -0.9479  -52.9801  -19.9703 N   0  0  0  0  0  0  0  0  0  0  0  0
   -1.4022  -53.9697  -20.7461 C   0  0  0  0  0  0  0  0  0  0  0  0
   -0.8315  -54.0917  -21.9880 C   0  0  0  0  0  0  0  0  0  0  0  0
   -1.3727  -55.3546  -23.0484 Cl  0  0  0  0  0  0  0  0  0  0  0  0
    0.1857  -53.2255  -22.4427 C   0  0  0  0  0  0  0  0  0  0  0  0
    0.5361  -52.2907  -21.5663 N   0  0  0  0  0  0  0  0  0  0  0  0
    0.5007  -51.0675  -19.5101 N   0  0  0  0  0  0  0  0  0  0  0  0
    0.3065  -51.1796  -18.4475 H   0  0  0  0  0  0  0  0  0  0  0  0
    2.1515  -49.3638  -19.0040 C   0  0  0  0  0  0  0  0  0  0  0  0
    2.8533  -48.2355  -19.3314 C   0  0  0  0  0  0  0  0  0  0  0  0
    2.6851  -47.5654  -20.5198 C   0  0  0  0  0  0  0  0  0  0  0  0
    1.7566  -48.0909  -21.3890 C   0  0  0  0  0  0  0  0  0  0  0  0
    1.0247  -49.2496  -21.0720 C   0  0  0  0  0  0  0  0  0  0  0  0
    1.1979  -49.9127  -19.8850 C   0  0  0  0  0  0  0  0  0  0  0  0
    3.4311  -46.3989  -20.8325 N   0  0  0  0  0  0  0  0  0  0  0  0
    3.9079  -45.5807  -19.7533 C   0  0  0  0  0  0  0  0  0  0  0  0
    4.7298  -44.4385  -20.2665 C   0  0  0  0  0  0  0  0  0  0  0  0
    4.0191  -43.8359  -21.3067 O   0  0  0  0  0  0  0  0  0  0  0  0
    4.1739  -44.6570  -22.4225 C   0  0  0  0  0  0  0  0  0  0  0  0
    3.6986  -46.0479  -22.1966 C   0  0  0  0  0  0  0  0  0  0  0  0
    3.4937  -50.7768  -17.5275 C   0  0  0  0  0  0  0  0  0  0  0  0
    2.3738  -49.9757  -17.8025 O   0  0  0  0  0  0  0  0  0  0  0  0
    0.7041  -53.4444  -23.7158 N   0  0  0  0  0  0  0  0  0  0  0  0
    0.5015  -54.3735  -24.1525 H   0  0  0  0  0  0  0  0  0  0  0  0
    1.4605  -52.5404  -24.4700 C   0  0  0  0  0  0  0  0  0  0  0  0
    2.5807  -51.8579  -24.0717 C   0  0  0  0  0  0  0  0  0  0  0  0
    3.2730  -50.9502  -24.8807 C   0  0  0  0  0  0  0  0  0  0  0  0
    2.8194  -50.7170  -26.1472 C   0  0  0  0  0  0  0  0  0  0  0  0
    1.6990  -51.3718  -26.6053 C   0  0  0  0  0  0  0  0  0  0  0  0
    1.0363  -52.2601  -25.7911 C   0  0  0  0  0  0  0  0  0  0  0  0
   -0.3668  -53.0720  -26.3999 S   0  0  0  0  0  0  0  0  0  0  0  0
   -0.1079  -54.5469  -26.5765 O   0  0  0  0  0  0  0  0  0  0  0  0
   -1.5970  -52.8021  -25.5688 O   0  0  0  0  0  0  0  0  0  0  0  0
   -0.7647  -52.3905  -28.0177 C   0  0  0  0  0  0  0  0  0  0  0  0
   -0.1593  -53.1590  -29.1367 C   0  0  0  0  0  0  0  0  0  0  0  0
   -2.3069  -52.4906  -28.0842 C   0  0  0  0  0  0  0  0  0  0  0  0
 22 23  1  0  0  0
 23 10  1  0  0  0
 10 11  2  0  0  0
 11 12  1  0  0  0
 12 13  2  0  0  0
 13 14  1  0  0  0
 14 15  2  0  0  0
 15  8  1  0  0  0
  8  1  1  0  0  0
  1  2  2  0  0  0
  2  3  1  0  0  0
  3  4  2  0  0  0
  4  5  1  0  0  0
  4  6  1  0  0  0
  6 24  1  0  0  0
 24 26  1  0  0  0
 26 27  2  0  0  0
 27 28  1  0  0  0
 28 29  2  0  0  0
 29 30  1  0  0  0
 30 31  2  0  0  0
 31 32  1  0  0  0
 32 33  2  0  0  0
 32 34  2  0  0  0
 32 35  1  0  0  0
 35 36  1  0  0  0
 35 37  1  0  0  0
  6  7  2  0  0  0
 12 16  1  0  0  0
 16 17  1  0  0  0
 17 18  1  0  0  0
 18 19  1  0  0  0
 19 20  1  0  0  0
 20 21  1  0  0  0
 15 10  1  0  0  0
  7  1  1  0  0  0
 21 16  1  0  0  0
 31 26  1  0  0  0
  8  9  1  0  0  0
 24 25  1  0  0  0
M  END
> <minimizedAffinity>
-8.15158

> <CNNscore>
0.2033330053

> <CNNaffinity>
6.9673209190

> <CNN_VS>
1.4166862965

> <CNNaffinity_variance>
0.1695791632

$$$$
[H]c1nc(N([H])c2c([H])c([H])c(N3C([H])([H])C([H])([H])OC([H])([H])C3([H])[H])c([H])c2OC([H])([H])[H])nc(N([H])c2c([H])c([H])c([H])c([H])c2S(=O)(=O)C([H])(C([H])([H])[H])C([H])([H])[H])c1Cl


 37 40  0  0  0  0  0  0  0  0999 V2000
   -0.2483  -52.1068  -20.8222 C   0  0  0  0  0  0  0  0  0  0  0  0
   -1.1919  -52.9883  -20.4908 N   0  0  0  0  0  0  0  0  0  0  0  0
   -1.5360  -54.0504  -21.2264 C   0  0  0  0  0  0  0  0  0  0  0  0
   -0.8575  -54.2303  -22.4054 C   0  0  0  0  0  0  0  0  0  0  0  0
   -1.2522  -55.5888  -23.4110 Cl  0  0  0  0  0  0  0  0  0  0  0  0
    0.1565  -53.3492  -22.8381 C   0  0  0  0  0  0  0  0  0  0  0  0
    0.3910  -52.3398  -22.0069 N   0  0  0  0  0  0  0  0  0  0  0  0
    0.1292  -50.9799  -20.0556 N   0  0  0  0  0  0  0  0  0  0  0  0
   -0.0275  -50.0226  -20.5438 H   0  0  0  0  0  0  0  0  0  0  0  0
    2.0456  -50.6504  -18.6055 C   0  0  0  0  0  0  0  0  0  0  0  0
    2.6166  -50.5906  -17.3632 C   0  0  0  0  0  0  0  0  0  0  0  0
    1.9091  -50.7909  -16.2017 C   0  0  0  0  0  0  0  0  0  0  0  0
    0.5675  -51.0614  -16.3449 C   0  0  0  0  0  0  0  0  0  0  0  0
   -0.0390  -51.1273  -17.6125 C   0  0  0  0  0  0  0  0  0  0  0  0
    0.6728  -50.9263  -18.7664 C   0  0  0  0  0  0  0  0  0  0  0  0
    2.5291  -50.7187  -14.9269 N   0  0  0  0  0  0  0  0  0  0  0  0
    3.3934  -49.6068  -14.6472 C   0  0  0  0  0  0  0  0  0  0  0  0
    3.8994  -49.6596  -13.2384 C   0  0  0  0  0  0  0  0  0  0  0  0
    4.3675  -50.9538  -13.0021 O   0  0  0  0  0  0  0  0  0  0  0  0
    3.2436  -51.7525  -12.7973 C   0  0  0  0  0  0  0  0  0  0  0  0
    2.2967  -51.7363  -13.9439 C   0  0  0  0  0  0  0  0  0  0  0  0
    4.2078  -50.6083  -19.7462 C   0  0  0  0  0  0  0  0  0  0  0  0
    2.8142  -50.4398  -19.7156 O   0  0  0  0  0  0  0  0  0  0  0  0
    0.7898  -53.6305  -24.0452 N   0  0  0  0  0  0  0  0  0  0  0  0
    0.6710  -54.5987  -24.4241 H   0  0  0  0  0  0  0  0  0  0  0  0
    1.5606  -52.7426  -24.8040 C   0  0  0  0  0  0  0  0  0  0  0  0
    2.7214  -52.1180  -24.4278 C   0  0  0  0  0  0  0  0  0  0  0  0
    3.4266  -51.2224  -25.2392 C   0  0  0  0  0  0  0  0  0  0  0  0
    2.9439  -50.9410  -26.4849 C   0  0  0  0  0  0  0  0  0  0  0  0
    1.7822  -51.5367  -26.9203 C   0  0  0  0  0  0  0  0  0  0  0  0
    1.1075  -52.4142  -26.1042 C   0  0  0  0  0  0  0  0  0  0  0  0
   -0.3481  -53.1511  -26.6845 S   0  0  0  0  0  0  0  0  0  0  0  0
   -0.1486  -54.6241  -26.9375 O   0  0  0  0  0  0  0  0  0  0  0  0
   -1.5308  -52.8794  -25.7875 O   0  0  0  0  0  0  0  0  0  0  0  0
   -0.7924  -52.3838  -28.2510 C   0  0  0  0  0  0  0  0  0  0  0  0
   -0.1958  -53.0728  -29.4251 C   0  0  0  0  0  0  0  0  0  0  0  0
   -2.3335  -52.5109  -28.2930 C   0  0  0  0  0  0  0  0  0  0  0  0
 22 23  1  0  0  0
 23 10  1  0  0  0
 10 11  2  0  0  0
 11 12  1  0  0  0
 12 13  2  0  0  0
 13 14  1  0  0  0
 14 15  2  0  0  0
 15  8  1  0  0  0
  8  1  1  0  0  0
  1  2  2  0  0  0
  2  3  1  0  0  0
  3  4  2  0  0  0
  4  5  1  0  0  0
  4  6  1  0  0  0
  6 24  1  0  0  0
 24 26  1  0  0  0
 26 27  2  0  0  0
 27 28  1  0  0  0
 28 29  2  0  0  0
 29 30  1  0  0  0
 30 31  2  0  0  0
 31 32  1  0  0  0
 32 33  2  0  0  0
 32 34  2  0  0  0
 32 35  1  0  0  0
 35 36  1  0  0  0
 35 37  1  0  0  0
  6  7  2  0  0  0
 12 16  1  0  0  0
 16 17  1  0  0  0
 17 18  1  0  0  0
 18 19  1  0  0  0
 19 20  1  0  0  0
 20 21  1  0  0  0
 15 10  1  0  0  0
  7  1  1  0  0  0
 21 16  1  0  0  0
 31 26  1  0  0  0
  8  9  1  0  0  0
 24 25  1  0  0  0
M  END
> <minimizedAffinity>
-8.01093

> <CNNscore>
0.1562447548

> <CNNaffinity>
6.8370122910

> <CNN_VS>
1.0682473183

> <CNNaffinity_variance>
0.1759501696

$$$$
[H]c1nc(N([H])c2c([H])c([H])c(N3C([H])([H])C([H])([H])OC([H])([H])C3([H])[H])c([H])c2OC([H])([H])[H])nc(N([H])c2c([H])c([H])c([H])c([H])c2S(=O)(=O)C([H])(C([H])([H])[H])C([H])([H])[H])c1Cl


 37 40  0  0  0  0  0  0  0  0999 V2000
    0.5919  -50.7651  -21.6311 C   0  0  0  0  0  0  0  0  0  0  0  0
   -0.1745  -51.4085  -20.7503 N   0  0  0  0  0  0  0  0  0  0  0  0
   -0.7220  -52.6117  -20.9509 C   0  0  0  0  0  0  0  0  0  0  0  0
   -0.4655  -53.2129  -22.1573 C   0  0  0  0  0  0  0  0  0  0  0  0
   -1.1442  -54.7761  -22.4860 Cl  0  0  0  0  0  0  0  0  0  0  0  0
    0.3341  -52.6079  -23.1505 C   0  0  0  0  0  0  0  0  0  0  0  0
    0.8106  -51.4146  -22.8129 N   0  0  0  0  0  0  0  0  0  0  0  0
    1.1801  -49.4940  -21.4345 N   0  0  0  0  0  0  0  0  0  0  0  0
    0.5689  -48.7895  -20.8780 H   0  0  0  0  0  0  0  0  0  0  0  0
    3.5964  -49.4960  -21.2229 C   0  0  0  0  0  0  0  0  0  0  0  0
    4.8364  -49.0577  -21.6014 C   0  0  0  0  0  0  0  0  0  0  0  0
    5.0337  -48.1395  -22.6052 C   0  0  0  0  0  0  0  0  0  0  0  0
    3.9019  -47.6672  -23.2295 C   0  0  0  0  0  0  0  0  0  0  0  0
    2.6182  -48.1045  -22.8557 C   0  0  0  0  0  0  0  0  0  0  0  0
    2.4292  -49.0206  -21.8539 C   0  0  0  0  0  0  0  0  0  0  0  0
    6.3333  -47.7070  -22.9780 N   0  0  0  0  0  0  0  0  0  0  0  0
    7.0609  -46.8637  -22.0719 C   0  0  0  0  0  0  0  0  0  0  0  0
    8.4319  -46.5663  -22.5970 C   0  0  0  0  0  0  0  0  0  0  0  0
    8.3009  -46.1699  -23.9295 O   0  0  0  0  0  0  0  0  0  0  0  0
    8.0949  -47.3315  -24.6721 C   0  0  0  0  0  0  0  0  0  0  0  0
    6.9022  -48.1036  -24.2328 C   0  0  0  0  0  0  0  0  0  0  0  0
    3.9413  -50.1981  -18.9064 C   0  0  0  0  0  0  0  0  0  0  0  0
    3.4796  -50.4115  -20.2151 O   0  0  0  0  0  0  0  0  0  0  0  0
    0.5407  -53.3096  -24.3347 N   0  0  0  0  0  0  0  0  0  0  0  0
    1.1353  -54.1686  -24.2745 H   0  0  0  0  0  0  0  0  0  0  0  0
    0.0232  -52.9832  -25.5932 C   0  0  0  0  0  0  0  0  0  0  0  0
   -1.2965  -52.8647  -25.9447 C   0  0  0  0  0  0  0  0  0  0  0  0
   -1.7377  -52.5542  -27.2356 C   0  0  0  0  0  0  0  0  0  0  0  0
   -0.8114  -52.3541  -28.2185 C   0  0  0  0  0  0  0  0  0  0  0  0
    0.5297  -52.4594  -27.9280 C   0  0  0  0  0  0  0  0  0  0  0  0
    0.9383  -52.7649  -26.6509 C   0  0  0  0  0  0  0  0  0  0  0  0
    2.6333  -52.8841  -26.3171 S   0  0  0  0  0  0  0  0  0  0  0  0
    2.8886  -53.7268  -25.0931 O   0  0  0  0  0  0  0  0  0  0  0  0
    3.4259  -53.3549  -27.5118 O   0  0  0  0  0  0  0  0  0  0  0  0
    3.2681  -51.2329  -25.9848 C   0  0  0  0  0  0  0  0  0  0  0  0
    2.1937  -50.2170  -25.8337 C   0  0  0  0  0  0  0  0  0  0  0  0
    4.0277  -51.3986  -24.6475 C   0  0  0  0  0  0  0  0  0  0  0  0
 22 23  1  0  0  0
 23 10  1  0  0  0
 10 11  2  0  0  0
 11 12  1  0  0  0
 12 13  2  0  0  0
 13 14  1  0  0  0
 14 15  2  0  0  0
 15  8  1  0  0  0
  8  1  1  0  0  0
  1  2  2  0  0  0
  2  3  1  0  0  0
  3  4  2  0  0  0
  4  5  1  0  0  0
  4  6  1  0  0  0
  6 24  1  0  0  0
 24 26  1  0  0  0
 26 27  2  0  0  0
 27 28  1  0  0  0
 28 29  2  0  0  0
 29 30  1  0  0  0
 30 31  2  0  0  0
 31 32  1  0  0  0
 32 33  2  0  0  0
 32 34  2  0  0  0
 32 35  1  0  0  0
 35 36  1  0  0  0
 35 37  1  0  0  0
  6  7  2  0  0  0
 12 16  1  0  0  0
 16 17  1  0  0  0
 17 18  1  0  0  0
 18 19  1  0  0  0
 19 20  1  0  0  0
 20 21  1  0  0  0
 15 10  1  0  0  0
  7  1  1  0  0  0
 21 16  1  0  0  0
 31 26  1  0  0  0
  8  9  1  0  0  0
 24 25  1  0  0  0
M  END
> <minimizedAffinity>
-6.82430

> <CNNscore>
0.1513578594

> <CNNaffinity>
6.6121072769

> <CNN_VS>
1.0007944107

> <CNNaffinity_variance>
0.4163523316

$$$$
[H]c1nc(N([H])c2c([H])c([H])c(N3C([H])([H])C([H])([H])OC([H])([H])C3([H])[H])c([H])c2OC([H])([H])[H])nc(N([H])c2c([H])c([H])c([H])c([H])c2S(=O)(=O)C([H])(C([H])([H])[H])C([H])([H])[H])c1Cl


 37 40  0  0  0  0  0  0  0  0999 V2000
    0.1006  -52.0403  -19.7801 C   0  0  0  0  0  0  0  0  0  0  0  0
   -0.8563  -52.9114  -19.4596 N   0  0  0  0  0  0  0  0  0  0  0  0
   -1.2938  -53.8917  -20.2566 C   0  0  0  0  0  0  0  0  0  0  0  0
   -0.7031  -53.9932  -21.4909 C   0  0  0  0  0  0  0  0  0  0  0  0
   -1.2218  -55.2430  -22.5778 Cl  0  0  0  0  0  0  0  0  0  0  0  0
    0.3172  -53.1162  -21.9170 C   0  0  0  0  0  0  0  0  0  0  0  0
    0.6496  -52.1926  -21.0218 N   0  0  0  0  0  0  0  0  0  0  0  0
    0.5762  -50.9995  -18.9490 N   0  0  0  0  0  0  0  0  0  0  0  0
    0.1352  -50.9699  -17.9570 H   0  0  0  0  0  0  0  0  0  0  0  0
    2.8089  -50.1018  -18.6437 C   0  0  0  0  0  0  0  0  0  0  0  0
    3.7670  -49.1550  -18.8855 C   0  0  0  0  0  0  0  0  0  0  0  0
    3.5571  -48.0648  -19.6962 C   0  0  0  0  0  0  0  0  0  0  0  0
    2.3100  -47.9631  -20.2690 C   0  0  0  0  0  0  0  0  0  0  0  0
    1.3111  -48.9252  -20.0335 C   0  0  0  0  0  0  0  0  0  0  0  0
    1.5277  -50.0099  -19.2241 C   0  0  0  0  0  0  0  0  0  0  0  0
    4.5725  -47.1011  -19.9308 N   0  0  0  0  0  0  0  0  0  0  0  0
    4.3510  -45.7518  -19.4929 C   0  0  0  0  0  0  0  0  0  0  0  0
    5.5507  -44.8956  -19.7599 C   0  0  0  0  0  0  0  0  0  0  0  0
    5.9487  -45.1196  -21.0795 O   0  0  0  0  0  0  0  0  0  0  0  0
    6.6197  -46.3414  -21.0910 C   0  0  0  0  0  0  0  0  0  0  0  0
    5.7897  -47.4702  -20.5925 C   0  0  0  0  0  0  0  0  0  0  0  0
    3.5824  -51.0264  -16.5166 C   0  0  0  0  0  0  0  0  0  0  0  0
    3.0920  -51.1591  -17.8255 O   0  0  0  0  0  0  0  0  0  0  0  0
    0.8567  -53.3145  -23.1847 N   0  0  0  0  0  0  0  0  0  0  0  0
    1.6750  -53.9633  -23.2512 H   0  0  0  0  0  0  0  0  0  0  0  0
    0.4053  -52.7386  -24.3774 C   0  0  0  0  0  0  0  0  0  0  0  0
   -0.8435  -52.8462  -24.9326 C   0  0  0  0  0  0  0  0  0  0  0  0
   -1.2143  -52.2553  -26.1454 C   0  0  0  0  0  0  0  0  0  0  0  0
   -0.2888  -51.5234  -26.8323 C   0  0  0  0  0  0  0  0  0  0  0  0
    0.9829  -51.3787  -26.3266 C   0  0  0  0  0  0  0  0  0  0  0  0
    1.3229  -51.9687  -25.1318 C   0  0  0  0  0  0  0  0  0  0  0  0
    2.9297  -51.7623  -24.5202 S   0  0  0  0  0  0  0  0  0  0  0  0
    3.5080  -53.0754  -24.0566 O   0  0  0  0  0  0  0  0  0  0  0  0
    3.8335  -51.0520  -25.4978 O   0  0  0  0  0  0  0  0  0  0  0  0
    2.8628  -50.6628  -23.0965 C   0  0  0  0  0  0  0  0  0  0  0  0
    3.9252  -50.9432  -22.0956 C   0  0  0  0  0  0  0  0  0  0  0  0
    3.0760  -49.2596  -23.7116 C   0  0  0  0  0  0  0  0  0  0  0  0
 22 23  1  0  0  0
 23 10  1  0  0  0
 10 11  2  0  0  0
 11 12  1  0  0  0
 12 13  2  0  0  0
 13 14  1  0  0  0
 14 15  2  0  0  0
 15  8  1  0  0  0
  8  1  1  0  0  0
  1  2  2  0  0  0
  2  3  1  0  0  0
  3  4  2  0  0  0
  4  5  1  0  0  0
  4  6  1  0  0  0
  6 24  1  0  0  0
 24 26  1  0  0  0
 26 27  2  0  0  0
 27 28  1  0  0  0
 28 29  2  0  0  0
 29 30  1  0  0  0
 30 31  2  0  0  0
 31 32  1  0  0  0
 32 33  2  0  0  0
 32 34  2  0  0  0
 32 35  1  0  0  0
 35 36  1  0  0  0
 35 37  1  0  0  0
  6  7  2  0  0  0
 12 16  1  0  0  0
 16 17  1  0  0  0
 17 18  1  0  0  0
 18 19  1  0  0  0
 19 20  1  0  0  0
 20 21  1  0  0  0
 15 10  1  0  0  0
  7  1  1  0  0  0
 21 16  1  0  0  0
 31 26  1  0  0  0
  8  9  1  0  0  0
 24 25  1  0  0  0
M  END
> <minimizedAffinity>
-6.66713

> <CNNscore>
0.1171071827

> <CNNaffinity>
6.6035795212

> <CNN_VS>
0.7733265758

> <CNNaffinity_variance>
0.2138376981

$$$$
[H]c1nc(N([H])c2c([H])c([H])c(N3C([H])([H])C([H])([H])OC([H])([H])C3([H])[H])c([H])c2OC([H])([H])[H])nc(N([H])c2c([H])c([H])c([H])c([H])c2S(=O)(=O)C([H])(C([H])([H])[H])C([H])([H])[H])c1Cl


 37 40  0  0  0  0  0  0  0  0999 V2000
    0.3589  -51.9131  -20.5367 C   0  0  0  0  0  0  0  0  0  0  0  0
   -0.5132  -52.7967  -20.0509 N   0  0  0  0  0  0  0  0  0  0  0  0
   -1.0106  -53.8326  -20.7343 C   0  0  0  0  0  0  0  0  0  0  0  0
   -0.5807  -53.9813  -22.0289 C   0  0  0  0  0  0  0  0  0  0  0  0
   -1.1852  -55.3045  -22.9754 Cl  0  0  0  0  0  0  0  0  0  0  0  0
    0.3405  -53.0955  -22.6278 C   0  0  0  0  0  0  0  0  0  0  0  0
    0.7486  -52.1143  -21.8305 N   0  0  0  0  0  0  0  0  0  0  0  0
    0.8961  -50.8137  -19.8275 N   0  0  0  0  0  0  0  0  0  0  0  0
    0.1789  -50.2656  -19.2238 H   0  0  0  0  0  0  0  0  0  0  0  0
    2.5564  -49.3173  -18.8853 C   0  0  0  0  0  0  0  0  0  0  0  0
    3.8307  -48.8221  -18.8232 C   0  0  0  0  0  0  0  0  0  0  0  0
    4.8508  -49.2720  -19.6274 C   0  0  0  0  0  0  0  0  0  0  0  0
    4.5277  -50.2674  -20.5210 C   0  0  0  0  0  0  0  0  0  0  0  0
    3.2242  -50.7902  -20.6010 C   0  0  0  0  0  0  0  0  0  0  0  0
    2.2121  -50.3367  -19.7957 C   0  0  0  0  0  0  0  0  0  0  0  0
    6.1640  -48.7408  -19.5368 N   0  0  0  0  0  0  0  0  0  0  0  0
    7.2077  -49.3592  -20.3047 C   0  0  0  0  0  0  0  0  0  0  0  0
    8.5035  -48.6262  -20.1397 C   0  0  0  0  0  0  0  0  0  0  0  0
    8.7042  -48.4179  -18.7736 O   0  0  0  0  0  0  0  0  0  0  0  0
    7.8750  -47.3593  -18.4063 C   0  0  0  0  0  0  0  0  0  0  0  0
    6.4384  -47.6134  -18.6947 C   0  0  0  0  0  0  0  0  0  0  0  0
    1.6201  -48.9583  -16.6554 C   0  0  0  0  0  0  0  0  0  0  0  0
    1.5943  -48.8193  -18.0523 O   0  0  0  0  0  0  0  0  0  0  0  0
    0.7191  -53.3443  -23.9438 N   0  0  0  0  0  0  0  0  0  0  0  0
    1.5840  -53.9164  -24.0840 H   0  0  0  0  0  0  0  0  0  0  0  0
    0.0511  -52.9120  -25.0949 C   0  0  0  0  0  0  0  0  0  0  0  0
   -1.3035  -52.8414  -25.2933 C   0  0  0  0  0  0  0  0  0  0  0  0
   -1.8985  -52.4162  -26.4861 C   0  0  0  0  0  0  0  0  0  0  0  0
   -1.0968  -52.0455  -27.5273 C   0  0  0  0  0  0  0  0  0  0  0  0
    0.2716  -52.0947  -27.3896 C   0  0  0  0  0  0  0  0  0  0  0  0
    0.8326  -52.5155  -26.2066 C   0  0  0  0  0  0  0  0  0  0  0  0
    2.5578  -52.5602  -26.0639 S   0  0  0  0  0  0  0  0  0  0  0  0
    3.0002  -53.6868  -25.1648 O   0  0  0  0  0  0  0  0  0  0  0  0
    3.2480  -52.5936  -27.4054 O   0  0  0  0  0  0  0  0  0  0  0  0
    3.1099  -51.0179  -25.3179 C   0  0  0  0  0  0  0  0  0  0  0  0
    4.4162  -51.1449  -24.6203 C   0  0  0  0  0  0  0  0  0  0  0  0
    3.2486  -50.0604  -26.5250 C   0  0  0  0  0  0  0  0  0  0  0  0
 22 23  1  0  0  0
 23 10  1  0  0  0
 10 11  2  0  0  0
 11 12  1  0  0  0
 12 13  2  0  0  0
 13 14  1  0  0  0
 14 15  2  0  0  0
 15  8  1  0  0  0
  8  1  1  0  0  0
  1  2  2  0  0  0
  2  3  1  0  0  0
  3  4  2  0  0  0
  4  5  1  0  0  0
  4  6  1  0  0  0
  6 24  1  0  0  0
 24 26  1  0  0  0
 26 27  2  0  0  0
 27 28  1  0  0  0
 28 29  2  0  0  0
 29 30  1  0  0  0
 30 31  2  0  0  0
 31 32  1  0  0  0
 32 33  2  0  0  0
 32 34  2  0  0  0
 32 35  1  0  0  0
 35 36  1  0  0  0
 35 37  1  0  0  0
  6  7  2  0  0  0
 12 16  1  0  0  0
 16 17  1  0  0  0
 17 18  1  0  0  0
 18 19  1  0  0  0
 19 20  1  0  0  0
 20 21  1  0  0  0
 15 10  1  0  0  0
  7  1  1  0  0  0
 21 16  1  0  0  0
 31 26  1  0  0  0
  8  9  1  0  0  0
 24 25  1  0  0  0
M  END
> <minimizedAffinity>
-6.75792

> <CNNscore>
0.1150876209

> <CNNaffinity>
6.9179916382

> <CNN_VS>
0.7961751819

> <CNNaffinity_variance>
0.2171876431

$$$$
[H]c1nc(N([H])c2c([H])c([H])c(N3C([H])([H])C([H])([H])OC([H])([H])C3([H])[H])c([H])c2OC([H])([H])[H])nc(N([H])c2c([H])c([H])c([H])c([H])c2S(=O)(=O)C([H])(C([H])([H])[H])C([H])([H])[H])c1Cl


 37 40  0  0  0  0  0  0  0  0999 V2000
    0.1430  -52.0295  -19.8109 C   0  0  0  0  0  0  0  0  0  0  0  0
   -0.7900  -52.9466  -19.5547 N   0  0  0  0  0  0  0  0  0  0  0  0
   -1.1903  -53.8887  -20.4148 C   0  0  0  0  0  0  0  0  0  0  0  0
   -0.5854  -53.8969  -21.6464 C   0  0  0  0  0  0  0  0  0  0  0  0
   -1.0558  -55.0925  -22.8132 Cl  0  0  0  0  0  0  0  0  0  0  0  0
    0.4119  -52.9656  -22.0069 C   0  0  0  0  0  0  0  0  0  0  0  0
    0.7078  -52.0891  -21.0534 N   0  0  0  0  0  0  0  0  0  0  0  0
    0.5792  -51.0279  -18.9127 N   0  0  0  0  0  0  0  0  0  0  0  0
   -0.1616  -50.7157  -18.1825 H   0  0  0  0  0  0  0  0  0  0  0  0
    2.0376  -49.2041  -19.5690 C   0  0  0  0  0  0  0  0  0  0  0  0
    3.2377  -48.5482  -19.5213 C   0  0  0  0  0  0  0  0  0  0  0  0
    4.3021  -48.9846  -18.7687 C   0  0  0  0  0  0  0  0  0  0  0  0
    4.1045  -50.1392  -18.0465 C   0  0  0  0  0  0  0  0  0  0  0  0
    2.8788  -50.8287  -18.0815 C   0  0  0  0  0  0  0  0  0  0  0  0
    1.8217  -50.3875  -18.8342 C   0  0  0  0  0  0  0  0  0  0  0  0
    5.5339  -48.2800  -18.7367 N   0  0  0  0  0  0  0  0  0  0  0  0
    6.6376  -48.7946  -19.4973 C   0  0  0  0  0  0  0  0  0  0  0  0
    7.8265  -47.8886  -19.4009 C   0  0  0  0  0  0  0  0  0  0  0  0
    8.0210  -47.5831  -18.0523 O   0  0  0  0  0  0  0  0  0  0  0  0
    7.0642  -46.6257  -17.7190 C   0  0  0  0  0  0  0  0  0  0  0  0
    5.6697  -47.0829  -17.9595 C   0  0  0  0  0  0  0  0  0  0  0  0
    1.2083  -48.1823  -21.6295 C   0  0  0  0  0  0  0  0  0  0  0  0
    1.0246  -48.7088  -20.3409 O   0  0  0  0  0  0  0  0  0  0  0  0
    0.9688  -53.0697  -23.2782 N   0  0  0  0  0  0  0  0  0  0  0  0
    0.8955  -54.0016  -23.7487 H   0  0  0  0  0  0  0  0  0  0  0  0
    1.6074  -52.0482  -23.9901 C   0  0  0  0  0  0  0  0  0  0  0  0
    2.5094  -51.1360  -23.5069 C   0  0  0  0  0  0  0  0  0  0  0  0
    3.0915  -50.1258  -24.2804 C   0  0  0  0  0  0  0  0  0  0  0  0
    2.7521  -50.0269  -25.5992 C   0  0  0  0  0  0  0  0  0  0  0  0
    1.8513  -50.9138  -26.1432 C   0  0  0  0  0  0  0  0  0  0  0  0
    1.2933  -51.8987  -25.3623 C   0  0  0  0  0  0  0  0  0  0  0  0
    0.1677  -53.0023  -26.0790 S   0  0  0  0  0  0  0  0  0  0  0  0
    0.7161  -54.4067  -26.0918 O   0  0  0  0  0  0  0  0  0  0  0  0
   -1.1992  -52.9272  -25.4441 O   0  0  0  0  0  0  0  0  0  0  0  0
   -0.1079  -52.5085  -27.7879 C   0  0  0  0  0  0  0  0  0  0  0  0
    0.6150  -53.3653  -28.7639 C   0  0  0  0  0  0  0  0  0  0  0  0
   -1.6349  -52.6743  -27.9716 C   0  0  0  0  0  0  0  0  0  0  0  0
 22 23  1  0  0  0
 23 10  1  0  0  0
 10 11  2  0  0  0
 11 12  1  0  0  0
 12 13  2  0  0  0
 13 14  1  0  0  0
 14 15  2  0  0  0
 15  8  1  0  0  0
  8  1  1  0  0  0
  1  2  2  0  0  0
  2  3  1  0  0  0
  3  4  2  0  0  0
  4  5  1  0  0  0
  4  6  1  0  0  0
  6 24  1  0  0  0
 24 26  1  0  0  0
 26 27  2  0  0  0
 27 28  1  0  0  0
 28 29  2  0  0  0
 29 30  1  0  0  0
 30 31  2  0  0  0
 31 32  1  0  0  0
 32 33  2  0  0  0
 32 34  2  0  0  0
 32 35  1  0  0  0
 35 36  1  0  0  0
 35 37  1  0  0  0
  6  7  2  0  0  0
 12 16  1  0  0  0
 16 17  1  0  0  0
 17 18  1  0  0  0
 18 19  1  0  0  0
 19 20  1  0  0  0
 20 21  1  0  0  0
 15 10  1  0  0  0
  7  1  1  0  0  0
 21 16  1  0  0  0
 31 26  1  0  0  0
  8  9  1  0  0  0
 24 25  1  0  0  0
M  END
> <minimizedAffinity>
-7.40144

> <CNNscore>
0.1011655033

> <CNNaffinity>
6.7445116043

> <CNN_VS>
0.6823118925

> <CNNaffinity_variance>
0.1620729715

$$$$
[H]OC(=O)c1oc(-c2c([H])c([H])c(C([H])([H])[C@]3([H])C([H])([H])C([H])([H])[C@@]([H])(n4c(=S)n([H])c5c([H])c(Cl)c([H])c([H])c54)C([H])([H])C3([H])[H])c([H])c2[H])c(C([H])([H])[H])c1[H]


 35 39  0  0  0  0  0  0  0  0999 V2000
    1.7744  -52.3854  -25.7223 C   0  0  0  0  0  0  0  0  0  0  0  0
    2.3984  -53.0998  -24.5901 C   0  0  0  0  0  0  0  0  0  0  0  0
    2.1241  -52.5387  -23.2250 C   0  0  0  0  0  0  0  0  0  0  0  0
    0.7119  -52.1078  -23.0026 C   0  0  0  0  0  0  0  0  0  0  0  0
   -0.1397  -52.2001  -24.2479 C   0  0  0  0  0  0  0  0  0  0  0  0
    0.6600  -51.4294  -25.3114 C   0  0  0  0  0  0  0  0  0  0  0  0
    0.0856  -52.6857  -21.8312 N   0  0  0  0  0  0  0  0  0  0  0  0
   -0.6267  -53.8335  -21.7438 C   0  0  0  0  0  0  0  0  0  0  0  0
   -0.9470  -54.8477  -22.9632 S   0  0  0  0  0  0  0  0  0  0  0  0
   -1.0535  -54.0419  -20.4824 N   0  0  0  0  0  0  0  0  0  0  0  0
   -0.6241  -53.0295  -19.7274 C   0  0  0  0  0  0  0  0  0  0  0  0
   -0.7899  -52.7718  -18.3870 C   0  0  0  0  0  0  0  0  0  0  0  0
   -0.2293  -51.6272  -17.8506 C   0  0  0  0  0  0  0  0  0  0  0  0
   -0.4105  -51.2445  -16.1369 Cl  0  0  0  0  0  0  0  0  0  0  0  0
    0.4723  -50.7905  -18.6776 C   0  0  0  0  0  0  0  0  0  0  0  0
    0.6339  -51.0508  -20.0072 C   0  0  0  0  0  0  0  0  0  0  0  0
    0.0756  -52.1959  -20.5540 C   0  0  0  0  0  0  0  0  0  0  0  0
   -1.6293  -54.8636  -20.1433 H   0  0  0  0  0  0  0  0  0  0  0  0
    2.6823  -51.6428  -26.6411 C   0  0  0  0  0  0  0  0  0  0  0  0
    4.2649  -47.8901  -25.1324 C   0  0  0  0  0  0  0  0  0  0  0  0
    4.6558  -49.0772  -24.6099 C   0  0  0  0  0  0  0  0  0  0  0  0
    4.1515  -50.3096  -25.0844 C   0  0  0  0  0  0  0  0  0  0  0  0
    3.2364  -50.3795  -26.1024 C   0  0  0  0  0  0  0  0  0  0  0  0
    2.8433  -49.1645  -26.6295 C   0  0  0  0  0  0  0  0  0  0  0  0
    3.3293  -47.9683  -26.1727 C   0  0  0  0  0  0  0  0  0  0  0  0
    2.7566  -45.6253  -23.3372 C   0  0  0  0  0  0  0  0  0  0  0  0
    4.1023  -45.6120  -23.9631 C   0  0  0  0  0  0  0  0  0  0  0  0
    5.0031  -44.5415  -23.8741 C   0  0  0  0  0  0  0  0  0  0  0  0
    6.1155  -44.8968  -24.5684 C   0  0  0  0  0  0  0  0  0  0  0  0
    5.9191  -46.0743  -25.0408 O   0  0  0  0  0  0  0  0  0  0  0  0
    4.7262  -46.5598  -24.7117 C   0  0  0  0  0  0  0  0  0  0  0  0
    7.3295  -44.0775  -24.7475 C   0  0  0  0  0  0  0  0  0  0  0  0
    7.9076  -43.4917  -23.6564 O   0  0  0  0  0  0  0  0  0  0  0  0
    7.7978  -43.9392  -25.8835 O   0  0  0  0  0  0  0  0  0  0  0  0
    8.4931  -43.9786  -22.9627 H   0  0  0  0  0  0  0  0  0  0  0  0
 26 27  1  0  0  0
 27 28  1  0  0  0
 28 29  2  0  0  0
 29 30  1  0  0  0
 30 31  1  0  0  0
 31 20  1  0  0  0
 20 21  2  0  0  0
 21 22  1  0  0  0
 22 23  2  0  0  0
 23 19  1  0  0  0
 19  1  1  0  0  0
  1  2  1  0  0  0
  2  3  1  0  0  0
  3  4  1  0  0  0
  4  5  1  0  0  0
  5  6  1  0  0  0
  4  7  1  0  0  0
  7  8  1  0  0  0
  8  9  2  0  0  0
  8 10  1  0  0  0
 10 11  1  0  0  0
 11 12  2  0  0  0
 12 13  1  0  0  0
 13 14  1  0  0  0
 13 15  2  0  0  0
 15 16  1  0  0  0
 16 17  2  0  0  0
 23 24  1  0  0  0
 24 25  2  0  0  0
 29 32  1  0  0  0
 32 33  1  0  0  0
 32 34  2  0  0  0
 31 27  2  0  0  0
 25 20  1  0  0  0
  6  1  1  0  0  0
 17  7  1  0  0  0
 17 11  1  0  0  0
 10 18  1  0  0  0
 33 35  1  0  0  0
M  END
> <minimizedAffinity>
-7.46037

> <CNNscore>
0.3225827217

> <CNNaffinity>
6.8256926537

> <CNN_VS>
2.2018504143

> <CNNaffinity_variance>
0.5839270949

$$$$
[H]OC(=O)c1oc(-c2c([H])c([H])c(C([H])([H])[C@]3([H])C([H])([H])C([H])([H])[C@@]([H])(n4c(=S)n([H])c5c([H])c(Cl)c([H])c([H])c54)C([H])([H])C3([H])[H])c([H])c2[H])c(C([H])([H])[H])c1[H]


 35 39  0  0  0  0  0  0  0  0999 V2000
    1.6897  -52.3284  -25.8416 C   0  0  0  0  0  0  0  0  0  0  0  0
    2.3108  -53.0949  -24.7424 C   0  0  0  0  0  0  0  0  0  0  0  0
    2.0712  -52.5711  -23.3561 C   0  0  0  0  0  0  0  0  0  0  0  0
    0.6743  -52.1110  -23.0984 C   0  0  0  0  0  0  0  0  0  0  0  0
   -0.1973  -52.1410  -24.3329 C   0  0  0  0  0  0  0  0  0  0  0  0
    0.6070  -51.3574  -25.3835 C   0  0  0  0  0  0  0  0  0  0  0  0
    0.0500  -52.7099  -21.9366 N   0  0  0  0  0  0  0  0  0  0  0  0
   -0.6674  -53.8560  -21.8698 C   0  0  0  0  0  0  0  0  0  0  0  0
   -0.9973  -54.8434  -23.1084 S   0  0  0  0  0  0  0  0  0  0  0  0
   -1.0901  -54.0882  -20.6112 N   0  0  0  0  0  0  0  0  0  0  0  0
   -0.6529  -53.0935  -19.8375 C   0  0  0  0  0  0  0  0  0  0  0  0
   -0.8121  -52.8626  -18.4914 C   0  0  0  0  0  0  0  0  0  0  0  0
   -0.2440  -51.7318  -17.9339 C   0  0  0  0  0  0  0  0  0  0  0  0
   -0.4165  -51.3835  -16.2120 Cl  0  0  0  0  0  0  0  0  0  0  0  0
    0.4583  -50.8816  -18.7464 C   0  0  0  0  0  0  0  0  0  0  0  0
    0.6133  -51.1154  -20.0817 C   0  0  0  0  0  0  0  0  0  0  0  0
    0.0474  -52.2464  -20.6496 C   0  0  0  0  0  0  0  0  0  0  0  0
   -1.6684  -54.9140  -20.2868 H   0  0  0  0  0  0  0  0  0  0  0  0
    2.6035  -51.5804  -26.7501 C   0  0  0  0  0  0  0  0  0  0  0  0
    4.3465  -47.9943  -25.0280 C   0  0  0  0  0  0  0  0  0  0  0  0
    3.4489  -47.9220  -26.0402 C   0  0  0  0  0  0  0  0  0  0  0  0
    2.8716  -49.0765  -26.6164 C   0  0  0  0  0  0  0  0  0  0  0  0
    3.1839  -50.3399  -26.1865 C   0  0  0  0  0  0  0  0  0  0  0  0
    4.0998  -50.4046  -25.1543 C   0  0  0  0  0  0  0  0  0  0  0  0
    4.6616  -49.2885  -24.5932 C   0  0  0  0  0  0  0  0  0  0  0  0
    7.4577  -47.0263  -25.1287 C   0  0  0  0  0  0  0  0  0  0  0  0
    6.2983  -46.4508  -24.4024 C   0  0  0  0  0  0  0  0  0  0  0  0
    6.3655  -45.3152  -23.5832 C   0  0  0  0  0  0  0  0  0  0  0  0
    5.1155  -45.0994  -23.0966 C   0  0  0  0  0  0  0  0  0  0  0  0
    4.3505  -46.0149  -23.5706 O   0  0  0  0  0  0  0  0  0  0  0  0
    5.0023  -46.8594  -24.3637 C   0  0  0  0  0  0  0  0  0  0  0  0
    4.7105  -44.0099  -22.1875 C   0  0  0  0  0  0  0  0  0  0  0  0
    5.3043  -42.7848  -22.3062 O   0  0  0  0  0  0  0  0  0  0  0  0
    3.8407  -44.2306  -21.3368 O   0  0  0  0  0  0  0  0  0  0  0  0
    5.0854  -42.0878  -23.0325 H   0  0  0  0  0  0  0  0  0  0  0  0
 26 27  1  0  0  0
 27 28  1  0  0  0
 28 29  2  0  0  0
 29 30  1  0  0  0
 30 31  1  0  0  0
 31 20  1  0  0  0
 20 21  2  0  0  0
 21 22  1  0  0  0
 22 23  2  0  0  0
 23 19  1  0  0  0
 19  1  1  0  0  0
  1  2  1  0  0  0
  2  3  1  0  0  0
  3  4  1  0  0  0
  4  5  1  0  0  0
  5  6  1  0  0  0
  4  7  1  0  0  0
  7  8  1  0  0  0
  8  9  2  0  0  0
  8 10  1  0  0  0
 10 11  1  0  0  0
 11 12  2  0  0  0
 12 13  1  0  0  0
 13 14  1  0  0  0
 13 15  2  0  0  0
 15 16  1  0  0  0
 16 17  2  0  0  0
 23 24  1  0  0  0
 24 25  2  0  0  0
 29 32  1  0  0  0
 32 33  1  0  0  0
 32 34  2  0  0  0
 31 27  2  0  0  0
 25 20  1  0  0  0
  6  1  1  0  0  0
 17  7  1  0  0  0
 17 11  1  0  0  0
 10 18  1  0  0  0
 33 35  1  0  0  0
M  END
> <minimizedAffinity>
-7.90490

> <CNNscore>
0.2613317966

> <CNNaffinity>
6.8118453026

> <CNN_VS>
1.7801517248

> <CNNaffinity_variance>
0.5993439555

$$$$
[H]OC(=O)c1oc(-c2c([H])c([H])c(C([H])([H])[C@]3([H])C([H])([H])C([H])([H])[C@@]([H])(n4c(=S)n([H])c5c([H])c(Cl)c([H])c([H])c54)C([H])([H])C3([H])[H])c([H])c2[H])c(C([H])([H])[H])c1[H]


 35 39  0  0  0  0  0  0  0  0999 V2000
    2.7127  -50.4470  -22.1003 C   0  0  0  0  0  0  0  0  0  0  0  0
    2.9660  -51.5924  -21.2027 C   0  0  0  0  0  0  0  0  0  0  0  0
    2.5418  -51.4161  -19.7735 C   0  0  0  0  0  0  0  0  0  0  0  0
    1.2164  -50.7520  -19.5961 C   0  0  0  0  0  0  0  0  0  0  0  0
    0.6177  -50.2657  -20.8960 C   0  0  0  0  0  0  0  0  0  0  0  0
    1.7342  -49.4233  -21.5352 C   0  0  0  0  0  0  0  0  0  0  0  0
    0.2817  -51.4890  -18.7705 N   0  0  0  0  0  0  0  0  0  0  0  0
   -0.2622  -52.7062  -19.0049 C   0  0  0  0  0  0  0  0  0  0  0  0
    0.0185  -53.6390  -20.2969 S   0  0  0  0  0  0  0  0  0  0  0  0
   -1.0927  -53.0645  -18.0056 N   0  0  0  0  0  0  0  0  0  0  0  0
   -1.1020  -52.0825  -17.1029 C   0  0  0  0  0  0  0  0  0  0  0  0
   -1.7797  -51.9592  -15.9129 C   0  0  0  0  0  0  0  0  0  0  0  0
   -1.6045  -50.8141  -15.1578 C   0  0  0  0  0  0  0  0  0  0  0  0
   -2.4493  -50.6005  -13.6227 Cl  0  0  0  0  0  0  0  0  0  0  0  0
   -0.7596  -49.8426  -15.6253 C   0  0  0  0  0  0  0  0  0  0  0  0
   -0.0893  -49.9699  -16.8070 C   0  0  0  0  0  0  0  0  0  0  0  0
   -0.2586  -51.1144  -17.5709 C   0  0  0  0  0  0  0  0  0  0  0  0
   -1.6443  -53.9664  -17.9421 H   0  0  0  0  0  0  0  0  0  0  0  0
    3.9005  -49.6993  -22.6002 C   0  0  0  0  0  0  0  0  0  0  0  0
    3.7410  -48.3570  -26.7277 C   0  0  0  0  0  0  0  0  0  0  0  0
    3.0805  -49.4692  -26.3254 C   0  0  0  0  0  0  0  0  0  0  0  0
    3.1211  -49.9247  -24.9878 C   0  0  0  0  0  0  0  0  0  0  0  0
    3.8307  -49.2692  -24.0156 C   0  0  0  0  0  0  0  0  0  0  0  0
    4.5011  -48.1362  -24.4343 C   0  0  0  0  0  0  0  0  0  0  0  0
    4.4645  -47.6914  -25.7292 C   0  0  0  0  0  0  0  0  0  0  0  0
    2.1975  -45.7603  -27.9532 C   0  0  0  0  0  0  0  0  0  0  0  0
    3.1229  -46.7204  -28.6047 C   0  0  0  0  0  0  0  0  0  0  0  0
    3.5063  -46.6562  -29.9516 C   0  0  0  0  0  0  0  0  0  0  0  0
    4.3522  -47.6954  -30.1760 C   0  0  0  0  0  0  0  0  0  0  0  0
    4.4782  -48.3391  -29.0725 O   0  0  0  0  0  0  0  0  0  0  0  0
    3.7636  -47.8025  -28.0884 C   0  0  0  0  0  0  0  0  0  0  0  0
    5.0072  -48.0247  -31.4565 C   0  0  0  0  0  0  0  0  0  0  0  0
    4.2570  -48.0750  -32.5977 O   0  0  0  0  0  0  0  0  0  0  0  0
    6.2234  -48.2481  -31.4683 O   0  0  0  0  0  0  0  0  0  0  0  0
    3.9246  -47.2550  -33.1253 H   0  0  0  0  0  0  0  0  0  0  0  0
 26 27  1  0  0  0
 27 28  1  0  0  0
 28 29  2  0  0  0
 29 30  1  0  0  0
 30 31  1  0  0  0
 31 20  1  0  0  0
 20 21  2  0  0  0
 21 22  1  0  0  0
 22 23  2  0  0  0
 23 19  1  0  0  0
 19  1  1  0  0  0
  1  2  1  0  0  0
  2  3  1  0  0  0
  3  4  1  0  0  0
  4  5  1  0  0  0
  5  6  1  0  0  0
  4  7  1  0  0  0
  7  8  1  0  0  0
  8  9  2  0  0  0
  8 10  1  0  0  0
 10 11  1  0  0  0
 11 12  2  0  0  0
 12 13  1  0  0  0
 13 14  1  0  0  0
 13 15  2  0  0  0
 15 16  1  0  0  0
 16 17  2  0  0  0
 23 24  1  0  0  0
 24 25  2  0  0  0
 29 32  1  0  0  0
 32 33  1  0  0  0
 32 34  2  0  0  0
 31 27  2  0  0  0
 25 20  1  0  0  0
  6  1  1  0  0  0
 17  7  1  0  0  0
 17 11  1  0  0  0
 10 18  1  0  0  0
 33 35  1  0  0  0
M  END
> <minimizedAffinity>
-8.08247

> <CNNscore>
0.2446492612

> <CNNaffinity>
6.3412771225

> <CNN_VS>
1.5513887405

> <CNNaffinity_variance>
0.4868770540

$$$$
[H]OC(=O)c1oc(-c2c([H])c([H])c(C([H])([H])[C@]3([H])C([H])([H])C([H])([H])[C@@]([H])(n4c(=S)n([H])c5c([H])c(Cl)c([H])c([H])c54)C([H])([H])C3([H])[H])c([H])c2[H])c(C([H])([H])[H])c1[H]


 35 39  0  0  0  0  0  0  0  0999 V2000
    2.7232  -49.9015  -23.4413 C   0  0  0  0  0  0  0  0  0  0  0  0
    2.7907  -51.3375  -23.1021 C   0  0  0  0  0  0  0  0  0  0  0  0
    2.6887  -51.6755  -21.6430 C   0  0  0  0  0  0  0  0  0  0  0  0
    1.6595  -50.8945  -20.8947 C   0  0  0  0  0  0  0  0  0  0  0  0
    1.0088  -49.8166  -21.7309 C   0  0  0  0  0  0  0  0  0  0  0  0
    2.1907  -49.0242  -22.3137 C   0  0  0  0  0  0  0  0  0  0  0  0
    0.7113  -51.7038  -20.1570 N   0  0  0  0  0  0  0  0  0  0  0  0
    0.0177  -52.7828  -20.5896 C   0  0  0  0  0  0  0  0  0  0  0  0
    0.0951  -53.4303  -22.0704 S   0  0  0  0  0  0  0  0  0  0  0  0
   -0.7718  -53.2725  -19.6131 N   0  0  0  0  0  0  0  0  0  0  0  0
   -0.6035  -52.5170  -18.5267 C   0  0  0  0  0  0  0  0  0  0  0  0
   -1.1732  -52.5954  -17.2778 C   0  0  0  0  0  0  0  0  0  0  0  0
   -0.8146  -51.6664  -16.3184 C   0  0  0  0  0  0  0  0  0  0  0  0
   -1.5142  -51.7175  -14.6985 Cl  0  0  0  0  0  0  0  0  0  0  0  0
    0.0976  -50.6998  -16.6496 C   0  0  0  0  0  0  0  0  0  0  0  0
    0.6601  -50.6264  -17.8905 C   0  0  0  0  0  0  0  0  0  0  0  0
    0.3068  -51.5533  -18.8589 C   0  0  0  0  0  0  0  0  0  0  0  0
   -1.4154  -54.1102  -19.6886 H   0  0  0  0  0  0  0  0  0  0  0  0
    3.9696  -49.2640  -23.9513 C   0  0  0  0  0  0  0  0  0  0  0  0
    3.6084  -47.1611  -27.7343 C   0  0  0  0  0  0  0  0  0  0  0  0
    3.1764  -46.6039  -26.5775 C   0  0  0  0  0  0  0  0  0  0  0  0
    3.2823  -47.2718  -25.3362 C   0  0  0  0  0  0  0  0  0  0  0  0
    3.8286  -48.5240  -25.2263 C   0  0  0  0  0  0  0  0  0  0  0  0
    4.2665  -49.0849  -26.4105 C   0  0  0  0  0  0  0  0  0  0  0  0
    4.1658  -48.4412  -27.6153 C   0  0  0  0  0  0  0  0  0  0  0  0
    4.5517  -44.2055  -28.7348 C   0  0  0  0  0  0  0  0  0  0  0  0
    3.9356  -45.3223  -29.4936 C   0  0  0  0  0  0  0  0  0  0  0  0
    3.6396  -45.2768  -30.8631 C   0  0  0  0  0  0  0  0  0  0  0  0
    3.0885  -46.4741  -31.1926 C   0  0  0  0  0  0  0  0  0  0  0  0
    3.0483  -47.1896  -30.1275 O   0  0  0  0  0  0  0  0  0  0  0  0
    3.5434  -46.5533  -29.0706 C   0  0  0  0  0  0  0  0  0  0  0  0
    2.6205  -46.8786  -32.5322 C   0  0  0  0  0  0  0  0  0  0  0  0
    2.7949  -46.0270  -33.5867 O   0  0  0  0  0  0  0  0  0  0  0  0
    2.0798  -47.9820  -32.6709 O   0  0  0  0  0  0  0  0  0  0  0  0
    3.6840  -45.8734  -34.0838 H   0  0  0  0  0  0  0  0  0  0  0  0
 26 27  1  0  0  0
 27 28  1  0  0  0
 28 29  2  0  0  0
 29 30  1  0  0  0
 30 31  1  0  0  0
 31 20  1  0  0  0
 20 21  2  0  0  0
 21 22  1  0  0  0
 22 23  2  0  0  0
 23 19  1  0  0  0
 19  1  1  0  0  0
  1  2  1  0  0  0
  2  3  1  0  0  0
  3  4  1  0  0  0
  4  5  1  0  0  0
  5  6  1  0  0  0
  4  7  1  0  0  0
  7  8  1  0  0  0
  8  9  2  0  0  0
  8 10  1  0  0  0
 10 11  1  0  0  0
 11 12  2  0  0  0
 12 13  1  0  0  0
 13 14  1  0  0  0
 13 15  2  0  0  0
 15 16  1  0  0  0
 16 17  2  0  0  0
 23 24  1  0  0  0
 24 25  2  0  0  0
 29 32  1  0  0  0
 32 33  1  0  0  0
 32 34  2  0  0  0
 31 27  2  0  0  0
 25 20  1  0  0  0
  6  1  1  0  0  0
 17  7  1  0  0  0
 17 11  1  0  0  0
 10 18  1  0  0  0
 33 35  1  0  0  0
M  END
> <minimizedAffinity>
-7.97667

> <CNNscore>
0.2431544513

> <CNNaffinity>
6.3537497520

> <CNN_VS>
1.5449424982

> <CNNaffinity_variance>
0.4588265419

$$$$
[H]OC(=O)c1oc(-c2c([H])c([H])c(C([H])([H])[C@]3([H])C([H])([H])C([H])([H])[C@@]([H])(n4c(=S)n([H])c5c([H])c(Cl)c([H])c([H])c54)C([H])([H])C3([H])[H])c([H])c2[H])c(C([H])([H])[H])c1[H]


 35 39  0  0  0  0  0  0  0  0999 V2000
    1.1602  -51.7602  -20.7245 C   0  0  0  0  0  0  0  0  0  0  0  0
    0.6579  -52.9712  -21.4048 C   0  0  0  0  0  0  0  0  0  0  0  0
    0.0581  -52.7622  -22.7650 C   0  0  0  0  0  0  0  0  0  0  0  0
    0.8100  -51.8108  -23.6362 C   0  0  0  0  0  0  0  0  0  0  0  0
    1.9627  -51.1397  -22.9252 C   0  0  0  0  0  0  0  0  0  0  0  0
    1.3334  -50.5592  -21.6479 C   0  0  0  0  0  0  0  0  0  0  0  0
    1.1642  -52.3403  -24.9372 N   0  0  0  0  0  0  0  0  0  0  0  0
    2.3706  -52.7868  -25.3585 C   0  0  0  0  0  0  0  0  0  0  0  0
    3.7272  -52.8316  -24.4778 S   0  0  0  0  0  0  0  0  0  0  0  0
    2.3109  -53.2034  -26.6390 N   0  0  0  0  0  0  0  0  0  0  0  0
    1.0606  -53.0337  -27.0717 C   0  0  0  0  0  0  0  0  0  0  0  0
    0.4859  -53.2994  -28.2922 C   0  0  0  0  0  0  0  0  0  0  0  0
   -0.8563  -53.0217  -28.4753 C   0  0  0  0  0  0  0  0  0  0  0  0
   -1.6472  -53.3410  -30.0208 Cl  0  0  0  0  0  0  0  0  0  0  0  0
   -1.5650  -52.4906  -27.4303 C   0  0  0  0  0  0  0  0  0  0  0  0
   -0.9899  -52.2288  -26.2210 C   0  0  0  0  0  0  0  0  0  0  0  0
    0.3551  -52.5039  -26.0280 C   0  0  0  0  0  0  0  0  0  0  0  0
    3.1126  -53.5977  -27.2077 H   0  0  0  0  0  0  0  0  0  0  0  0
    0.4109  -51.2946  -19.5238 C   0  0  0  0  0  0  0  0  0  0  0  0
    2.7941  -50.0012  -16.1310 C   0  0  0  0  0  0  0  0  0  0  0  0
    3.3290  -50.7641  -17.1143 C   0  0  0  0  0  0  0  0  0  0  0  0
    2.5707  -51.1978  -18.2256 C   0  0  0  0  0  0  0  0  0  0  0  0
    1.2478  -50.8729  -18.3770 C   0  0  0  0  0  0  0  0  0  0  0  0
    0.7102  -50.0949  -17.3700 C   0  0  0  0  0  0  0  0  0  0  0  0
    1.4414  -49.6726  -16.2915 C   0  0  0  0  0  0  0  0  0  0  0  0
    3.3053  -51.4390  -13.2503 C   0  0  0  0  0  0  0  0  0  0  0  0
    3.7102  -50.0963  -13.7362 C   0  0  0  0  0  0  0  0  0  0  0  0
    4.4297  -49.1655  -12.9738 C   0  0  0  0  0  0  0  0  0  0  0  0
    4.6083  -48.0656  -13.7510 C   0  0  0  0  0  0  0  0  0  0  0  0
    4.0518  -48.2963  -14.8847 O   0  0  0  0  0  0  0  0  0  0  0  0
    3.4936  -49.5015  -14.9391 C   0  0  0  0  0  0  0  0  0  0  0  0
    5.3141  -46.8295  -13.3623 C   0  0  0  0  0  0  0  0  0  0  0  0
    4.6098  -45.8115  -12.7833 O   0  0  0  0  0  0  0  0  0  0  0  0
    6.5300  -46.7424  -13.5697 O   0  0  0  0  0  0  0  0  0  0  0  0
    4.2976  -45.7899  -11.8018 H   0  0  0  0  0  0  0  0  0  0  0  0
 26 27  1  0  0  0
 27 28  1  0  0  0
 28 29  2  0  0  0
 29 30  1  0  0  0
 30 31  1  0  0  0
 31 20  1  0  0  0
 20 21  2  0  0  0
 21 22  1  0  0  0
 22 23  2  0  0  0
 23 19  1  0  0  0
 19  1  1  0  0  0
  1  2  1  0  0  0
  2  3  1  0  0  0
  3  4  1  0  0  0
  4  5  1  0  0  0
  5  6  1  0  0  0
  4  7  1  0  0  0
  7  8  1  0  0  0
  8  9  2  0  0  0
  8 10  1  0  0  0
 10 11  1  0  0  0
 11 12  2  0  0  0
 12 13  1  0  0  0
 13 14  1  0  0  0
 13 15  2  0  0  0
 15 16  1  0  0  0
 16 17  2  0  0  0
 23 24  1  0  0  0
 24 25  2  0  0  0
 29 32  1  0  0  0
 32 33  1  0  0  0
 32 34  2  0  0  0
 31 27  2  0  0  0
 25 20  1  0  0  0
  6  1  1  0  0  0
 17  7  1  0  0  0
 17 11  1  0  0  0
 10 18  1  0  0  0
 33 35  1  0  0  0
M  END
> <minimizedAffinity>
-7.93715

> <CNNscore>
0.1703359336

> <CNNaffinity>
6.2780694962

> <CNN_VS>
1.0693808794

> <CNNaffinity_variance>
0.2895915210

$$$$
[H]OC(=O)c1oc(-c2c([H])c([H])c(C([H])([H])[C@]3([H])C([H])([H])C([H])([H])[C@@]([H])(n4c(=S)n([H])c5c([H])c(Cl)c([H])c([H])c54)C([H])([H])C3([H])[H])c([H])c2[H])c(C([H])([H])[H])c1[H]


 35 39  0  0  0  0  0  0  0  0999 V2000
    0.0547  -52.6367  -19.0005 C   0  0  0  0  0  0  0  0  0  0  0  0
    1.4466  -52.6935  -19.4914 C   0  0  0  0  0  0  0  0  0  0  0  0
    2.0334  -51.3939  -19.9610 C   0  0  0  0  0  0  0  0  0  0  0  0
    1.7127  -50.2191  -19.0970 C   0  0  0  0  0  0  0  0  0  0  0  0
    0.7445  -50.5480  -17.9839 C   0  0  0  0  0  0  0  0  0  0  0  0
   -0.4371  -51.2256  -18.6976 C   0  0  0  0  0  0  0  0  0  0  0  0
    2.8687  -49.4676  -18.6529 N   0  0  0  0  0  0  0  0  0  0  0  0
    3.6798  -49.7248  -17.6001 C   0  0  0  0  0  0  0  0  0  0  0  0
    3.5369  -50.9661  -16.5721 S   0  0  0  0  0  0  0  0  0  0  0  0
    4.6528  -48.7972  -17.5024 N   0  0  0  0  0  0  0  0  0  0  0  0
    4.4889  -47.9193  -18.4933 C   0  0  0  0  0  0  0  0  0  0  0  0
    5.2083  -46.7973  -18.8309 C   0  0  0  0  0  0  0  0  0  0  0  0
    4.8127  -46.0525  -19.9269 C   0  0  0  0  0  0  0  0  0  0  0  0
    5.6973  -44.6022  -20.4065 Cl  0  0  0  0  0  0  0  0  0  0  0  0
    3.7154  -46.4621  -20.6371 C   0  0  0  0  0  0  0  0  0  0  0  0
    3.0049  -47.5765  -20.2978 C   0  0  0  0  0  0  0  0  0  0  0  0
    3.3939  -48.3295  -19.2007 C   0  0  0  0  0  0  0  0  0  0  0  0
    5.4168  -48.7651  -16.7697 H   0  0  0  0  0  0  0  0  0  0  0  0
   -0.9871  -53.3027  -19.8318 C   0  0  0  0  0  0  0  0  0  0  0  0
   -0.2472  -53.1905  -24.1100 C   0  0  0  0  0  0  0  0  0  0  0  0
   -0.5233  -54.3553  -23.4758 C   0  0  0  0  0  0  0  0  0  0  0  0
   -0.7648  -54.4143  -22.0843 C   0  0  0  0  0  0  0  0  0  0  0  0
   -0.7348  -53.2971  -21.2910 C   0  0  0  0  0  0  0  0  0  0  0  0
   -0.4525  -52.1137  -21.9456 C   0  0  0  0  0  0  0  0  0  0  0  0
   -0.2179  -52.0520  -23.2936 C   0  0  0  0  0  0  0  0  0  0  0  0
   -2.1838  -52.0608  -26.4765 C   0  0  0  0  0  0  0  0  0  0  0  0
   -0.7845  -52.5520  -26.5363 C   0  0  0  0  0  0  0  0  0  0  0  0
   -0.0192  -52.6123  -27.7093 C   0  0  0  0  0  0  0  0  0  0  0  0
    1.1968  -53.1126  -27.3674 C   0  0  0  0  0  0  0  0  0  0  0  0
    1.1825  -53.3393  -26.1040 O   0  0  0  0  0  0  0  0  0  0  0  0
    0.0184  -53.0227  -25.5455 C   0  0  0  0  0  0  0  0  0  0  0  0
    2.3290  -53.3522  -28.2829 C   0  0  0  0  0  0  0  0  0  0  0  0
    3.2579  -52.3674  -28.4693 O   0  0  0  0  0  0  0  0  0  0  0  0
    2.4120  -54.4416  -28.8620 O   0  0  0  0  0  0  0  0  0  0  0  0
    4.0099  -52.1287  -27.8070 H   0  0  0  0  0  0  0  0  0  0  0  0
 26 27  1  0  0  0
 27 28  1  0  0  0
 28 29  2  0  0  0
 29 30  1  0  0  0
 30 31  1  0  0  0
 31 20  1  0  0  0
 20 21  2  0  0  0
 21 22  1  0  0  0
 22 23  2  0  0  0
 23 19  1  0  0  0
 19  1  1  0  0  0
  1  2  1  0  0  0
  2  3  1  0  0  0
  3  4  1  0  0  0
  4  5  1  0  0  0
  5  6  1  0  0  0
  4  7  1  0  0  0
  7  8  1  0  0  0
  8  9  2  0  0  0
  8 10  1  0  0  0
 10 11  1  0  0  0
 11 12  2  0  0  0
 12 13  1  0  0  0
 13 14  1  0  0  0
 13 15  2  0  0  0
 15 16  1  0  0  0
 16 17  2  0  0  0
 23 24  1  0  0  0
 24 25  2  0  0  0
 29 32  1  0  0  0
 32 33  1  0  0  0
 32 34  2  0  0  0
 31 27  2  0  0  0
 25 20  1  0  0  0
  6  1  1  0  0  0
 17  7  1  0  0  0
 17 11  1  0  0  0
 10 18  1  0  0  0
 33 35  1  0  0  0
M  END
> <minimizedAffinity>
-8.87237

> <CNNscore>
0.1408921778

> <CNNaffinity>
6.8689460754

> <CNN_VS>
0.9677807689

> <CNNaffinity_variance>
0.3309900165

$$$$
[H]OC(=O)c1oc(-c2c([H])c([H])c(C([H])([H])[C@]3([H])C([H])([H])C([H])([H])[C@@]([H])(n4c(=S)n([H])c5c([H])c(Cl)c([H])c([H])c54)C([H])([H])C3([H])[H])c([H])c2[H])c(C([H])([H])[H])c1[H]


 35 39  0  0  0  0  0  0  0  0999 V2000
   -0.4138  -52.3291  -20.3487 C   0  0  0  0  0  0  0  0  0  0  0  0
   -0.0518  -51.1607  -21.1766 C   0  0  0  0  0  0  0  0  0  0  0  0
    1.2118  -51.2864  -21.9772 C   0  0  0  0  0  0  0  0  0  0  0  0
    1.4012  -52.6133  -22.6351 C   0  0  0  0  0  0  0  0  0  0  0  0
    0.3402  -53.6206  -22.2554 C   0  0  0  0  0  0  0  0  0  0  0  0
    0.3358  -53.6045  -20.7178 C   0  0  0  0  0  0  0  0  0  0  0  0
    1.6493  -52.5462  -24.0607 N   0  0  0  0  0  0  0  0  0  0  0  0
    2.8406  -52.4820  -24.7004 C   0  0  0  0  0  0  0  0  0  0  0  0
    4.2972  -52.4662  -23.9961 S   0  0  0  0  0  0  0  0  0  0  0  0
    2.6690  -52.4304  -26.0363 N   0  0  0  0  0  0  0  0  0  0  0  0
    1.3591  -52.4603  -26.2869 C   0  0  0  0  0  0  0  0  0  0  0  0
    0.6685  -52.4305  -27.4755 C   0  0  0  0  0  0  0  0  0  0  0  0
   -0.7134  -52.4739  -27.4485 C   0  0  0  0  0  0  0  0  0  0  0  0
   -1.6525  -52.4374  -28.9427 Cl  0  0  0  0  0  0  0  0  0  0  0  0
   -1.3441  -52.5452  -26.2347 C   0  0  0  0  0  0  0  0  0  0  0  0
   -0.6540  -52.5746  -25.0580 C   0  0  0  0  0  0  0  0  0  0  0  0
    0.7316  -52.5315  -25.0750 C   0  0  0  0  0  0  0  0  0  0  0  0
    3.4356  -52.3757  -26.7650 H   0  0  0  0  0  0  0  0  0  0  0  0
   -0.3211  -52.1698  -18.8702 C   0  0  0  0  0  0  0  0  0  0  0  0
    2.5426  -49.2226  -17.4643 C   0  0  0  0  0  0  0  0  0  0  0  0
    2.9464  -50.3336  -18.1260 C   0  0  0  0  0  0  0  0  0  0  0  0
    2.0315  -51.3061  -18.5898 C   0  0  0  0  0  0  0  0  0  0  0  0
    0.6796  -51.1850  -18.3991 C   0  0  0  0  0  0  0  0  0  0  0  0
    0.2764  -50.0494  -17.7236 C   0  0  0  0  0  0  0  0  0  0  0  0
    1.1595  -49.1047  -17.2724 C   0  0  0  0  0  0  0  0  0  0  0  0
    3.4677  -46.4173  -18.8433 C   0  0  0  0  0  0  0  0  0  0  0  0
    3.7980  -46.9854  -17.5125 C   0  0  0  0  0  0  0  0  0  0  0  0
    4.6231  -46.3569  -16.5694 C   0  0  0  0  0  0  0  0  0  0  0  0
    4.6887  -47.1760  -15.4875 C   0  0  0  0  0  0  0  0  0  0  0  0
    3.9724  -48.2111  -15.7396 O   0  0  0  0  0  0  0  0  0  0  0  0
    3.4095  -48.1568  -16.9426 C   0  0  0  0  0  0  0  0  0  0  0  0
    5.4464  -46.9219  -14.2471 C   0  0  0  0  0  0  0  0  0  0  0  0
    6.0054  -47.9742  -13.5777 O   0  0  0  0  0  0  0  0  0  0  0  0
    5.5590  -45.7597  -13.8402 O   0  0  0  0  0  0  0  0  0  0  0  0
    6.8699  -48.4611  -13.8547 H   0  0  0  0  0  0  0  0  0  0  0  0
 26 27  1  0  0  0
 27 28  1  0  0  0
 28 29  2  0  0  0
 29 30  1  0  0  0
 30 31  1  0  0  0
 31 20  1  0  0  0
 20 21  2  0  0  0
 21 22  1  0  0  0
 22 23  2  0  0  0
 23 19  1  0  0  0
 19  1  1  0  0  0
  1  2  1  0  0  0
  2  3  1  0  0  0
  3  4  1  0  0  0
  4  5  1  0  0  0
  5  6  1  0  0  0
  4  7  1  0  0  0
  7  8  1  0  0  0
  8  9  2  0  0  0
  8 10  1  0  0  0
 10 11  1  0  0  0
 11 12  2  0  0  0
 12 13  1  0  0  0
 13 14  1  0  0  0
 13 15  2  0  0  0
 15 16  1  0  0  0
 16 17  2  0  0  0
 23 24  1  0  0  0
 24 25  2  0  0  0
 29 32  1  0  0  0
 32 33  1  0  0  0
 32 34  2  0  0  0
 31 27  2  0  0  0
 25 20  1  0  0  0
  6  1  1  0  0  0
 17  7  1  0  0  0
 17 11  1  0  0  0
 10 18  1  0  0  0
 33 35  1  0  0  0
M  END
> <minimizedAffinity>
-7.81719

> <CNNscore>
0.1332625300

> <CNNaffinity>
6.5719017982

> <CNN_VS>
0.8757882714

> <CNNaffinity_variance>
0.3231168389

$$$$
[H]OC(=O)c1oc(-c2c([H])c([H])c(C([H])([H])[C@]3([H])C([H])([H])C([H])([H])[C@@]([H])(n4c(=S)n([H])c5c([H])c(Cl)c([H])c([H])c54)C([H])([H])C3([H])[H])c([H])c2[H])c(C([H])([H])[H])c1[H]


 35 39  0  0  0  0  0  0  0  0999 V2000
    4.9525  -49.8184  -23.1382 C   0  0  0  0  0  0  0  0  0  0  0  0
    3.5892  -49.4008  -22.7524 C   0  0  0  0  0  0  0  0  0  0  0  0
    2.4698  -49.9543  -23.5856 C   0  0  0  0  0  0  0  0  0  0  0  0
    2.6147  -51.3972  -23.9412 C   0  0  0  0  0  0  0  0  0  0  0  0
    3.9344  -51.9874  -23.5001 C   0  0  0  0  0  0  0  0  0  0  0  0
    4.9892  -51.0246  -24.0701 C   0  0  0  0  0  0  0  0  0  0  0  0
    1.4718  -52.2178  -23.5967 N   0  0  0  0  0  0  0  0  0  0  0  0
    0.7435  -53.0208  -24.4074 C   0  0  0  0  0  0  0  0  0  0  0  0
    0.9940  -53.2518  -25.9892 S   0  0  0  0  0  0  0  0  0  0  0  0
   -0.2479  -53.6259  -23.7236 N   0  0  0  0  0  0  0  0  0  0  0  0
   -0.1797  -53.2244  -22.4534 C   0  0  0  0  0  0  0  0  0  0  0  0
   -0.9551  -53.5455  -21.3643 C   0  0  0  0  0  0  0  0  0  0  0  0
   -0.6598  -52.9745  -20.1400 C   0  0  0  0  0  0  0  0  0  0  0  0
   -1.6214  -53.3488  -18.7077 Cl  0  0  0  0  0  0  0  0  0  0  0  0
    0.3976  -52.1077  -20.0582 C   0  0  0  0  0  0  0  0  0  0  0  0
    1.1641  -51.7924  -21.1421 C   0  0  0  0  0  0  0  0  0  0  0  0
    0.8757  -52.3599  -22.3736 C   0  0  0  0  0  0  0  0  0  0  0  0
   -0.9598  -54.3027  -24.1195 H   0  0  0  0  0  0  0  0  0  0  0  0
    5.8430  -48.7765  -23.7226 C   0  0  0  0  0  0  0  0  0  0  0  0
    4.4768  -46.9888  -27.4375 C   0  0  0  0  0  0  0  0  0  0  0  0
    3.9706  -46.5987  -26.2431 C   0  0  0  0  0  0  0  0  0  0  0  0
    4.3993  -47.1690  -25.0229 C   0  0  0  0  0  0  0  0  0  0  0  0
    5.3537  -48.1514  -24.9728 C   0  0  0  0  0  0  0  0  0  0  0  0
    5.8646  -48.5433  -26.1950 C   0  0  0  0  0  0  0  0  0  0  0  0
    5.4520  -47.9934  -27.3796 C   0  0  0  0  0  0  0  0  0  0  0  0
    4.7433  -43.9694  -28.6373 C   0  0  0  0  0  0  0  0  0  0  0  0
    4.2089  -45.2050  -29.2623 C   0  0  0  0  0  0  0  0  0  0  0  0
    3.6954  -45.2713  -30.5650 C   0  0  0  0  0  0  0  0  0  0  0  0
    3.3061  -46.5558  -30.7758 C   0  0  0  0  0  0  0  0  0  0  0  0
    3.5557  -47.2182  -29.7049 O   0  0  0  0  0  0  0  0  0  0  0  0
    4.0997  -46.4621  -28.7566 C   0  0  0  0  0  0  0  0  0  0  0  0
    2.7049  -47.0922  -32.0120 C   0  0  0  0  0  0  0  0  0  0  0  0
    3.0761  -48.3314  -32.4527 O   0  0  0  0  0  0  0  0  0  0  0  0
    1.8764  -46.4068  -32.6226 O   0  0  0  0  0  0  0  0  0  0  0  0
    2.7476  -49.2242  -32.0575 H   0  0  0  0  0  0  0  0  0  0  0  0
 26 27  1  0  0  0
 27 28  1  0  0  0
 28 29  2  0  0  0
 29 30  1  0  0  0
 30 31  1  0  0  0
 31 20  1  0  0  0
 20 21  2  0  0  0
 21 22  1  0  0  0
 22 23  2  0  0  0
 23 19  1  0  0  0
 19  1  1  0  0  0
  1  2  1  0  0  0
  2  3  1  0  0  0
  3  4  1  0  0  0
  4  5  1  0  0  0
  5  6  1  0  0  0
  4  7  1  0  0  0
  7  8  1  0  0  0
  8  9  2  0  0  0
  8 10  1  0  0  0
 10 11  1  0  0  0
 11 12  2  0  0  0
 12 13  1  0  0  0
 13 14  1  0  0  0
 13 15  2  0  0  0
 15 16  1  0  0  0
 16 17  2  0  0  0
 23 24  1  0  0  0
 24 25  2  0  0  0
 29 32  1  0  0  0
 32 33  1  0  0  0
 32 34  2  0  0  0
 31 27  2  0  0  0
 25 20  1  0  0  0
  6  1  1  0  0  0
 17  7  1  0  0  0
 17 11  1  0  0  0
 10 18  1  0  0  0
 33 35  1  0  0  0
M  END
> <minimizedAffinity>
-7.29000

> <CNNscore>
0.1187359989

> <CNNaffinity>
6.3943281174

> <CNN_VS>
0.7592369318

> <CNNaffinity_variance>
0.4807308316

$$$$
[H]OC(=O)c1oc(-c2c([H])c([H])c(C([H])([H])[C@]3([H])C([H])([H])C([H])([H])[C@@]([H])(n4c(=S)n([H])c5c([H])c(Cl)c([H])c([H])c54)C([H])([H])C3([H])[H])c([H])c2[H])c(C([H])([H])[H])c1[H]


 35 39  0  0  0  0  0  0  0  0999 V2000
    0.8737  -52.0113  -21.6582 C   0  0  0  0  0  0  0  0  0  0  0  0
    2.2765  -51.5660  -21.7823 C   0  0  0  0  0  0  0  0  0  0  0  0
    2.9748  -51.9356  -23.0588 C   0  0  0  0  0  0  0  0  0  0  0  0
    2.1461  -51.7727  -24.2901 C   0  0  0  0  0  0  0  0  0  0  0  0
    0.7139  -51.3902  -23.9950 C   0  0  0  0  0  0  0  0  0  0  0  0
    0.2428  -52.4426  -22.9775 C   0  0  0  0  0  0  0  0  0  0  0  0
    2.7586  -50.9624  -25.3228 N   0  0  0  0  0  0  0  0  0  0  0  0
    3.0482  -51.3114  -26.5983 C   0  0  0  0  0  0  0  0  0  0  0  0
    2.7661  -52.7534  -27.2758 S   0  0  0  0  0  0  0  0  0  0  0  0
    3.6181  -50.2859  -27.2618 N   0  0  0  0  0  0  0  0  0  0  0  0
    3.7084  -49.2507  -26.4254 C   0  0  0  0  0  0  0  0  0  0  0  0
    4.2091  -47.9837  -26.6109 C   0  0  0  0  0  0  0  0  0  0  0  0
    4.1800  -47.0907  -25.5554 C   0  0  0  0  0  0  0  0  0  0  0  0
    4.8096  -45.4514  -25.7352 Cl  0  0  0  0  0  0  0  0  0  0  0  0
    3.6519  -47.5036  -24.3610 C   0  0  0  0  0  0  0  0  0  0  0  0
    3.1563  -48.7622  -24.1821 C   0  0  0  0  0  0  0  0  0  0  0  0
    3.1810  -49.6644  -25.2344 C   0  0  0  0  0  0  0  0  0  0  0  0
    3.9401  -50.2939  -28.2707 H   0  0  0  0  0  0  0  0  0  0  0  0
    0.5844  -53.0760  -20.6569 C   0  0  0  0  0  0  0  0  0  0  0  0
   -1.1255  -51.7504  -16.8910 C   0  0  0  0  0  0  0  0  0  0  0  0
   -0.0860  -51.0937  -17.4596 C   0  0  0  0  0  0  0  0  0  0  0  0
    0.4868  -51.5096  -18.6831 C   0  0  0  0  0  0  0  0  0  0  0  0
    0.0257  -52.6025  -19.3697 C   0  0  0  0  0  0  0  0  0  0  0  0
   -1.0344  -53.2663  -18.7830 C   0  0  0  0  0  0  0  0  0  0  0  0
   -1.5922  -52.8667  -17.5977 C   0  0  0  0  0  0  0  0  0  0  0  0
    0.1432  -51.2693  -13.9268 C   0  0  0  0  0  0  0  0  0  0  0  0
   -1.2654  -51.1989  -14.3890 C   0  0  0  0  0  0  0  0  0  0  0  0
   -2.3533  -50.8922  -13.5597 C   0  0  0  0  0  0  0  0  0  0  0  0
   -3.4683  -50.9251  -14.3351 C   0  0  0  0  0  0  0  0  0  0  0  0
   -3.1028  -51.2239  -15.5289 O   0  0  0  0  0  0  0  0  0  0  0  0
   -1.7891  -51.4012  -15.6271 C   0  0  0  0  0  0  0  0  0  0  0  0
   -4.8497  -50.6648  -13.8863 C   0  0  0  0  0  0  0  0  0  0  0  0
   -5.5947  -51.6946  -13.3843 O   0  0  0  0  0  0  0  0  0  0  0  0
   -5.3030  -49.5177  -13.9745 O   0  0  0  0  0  0  0  0  0  0  0  0
   -5.4978  -52.0902  -12.4381 H   0  0  0  0  0  0  0  0  0  0  0  0
 26 27  1  0  0  0
 27 28  1  0  0  0
 28 29  2  0  0  0
 29 30  1  0  0  0
 30 31  1  0  0  0
 31 20  1  0  0  0
 20 21  2  0  0  0
 21 22  1  0  0  0
 22 23  2  0  0  0
 23 19  1  0  0  0
 19  1  1  0  0  0
  1  2  1  0  0  0
  2  3  1  0  0  0
  3  4  1  0  0  0
  4  5  1  0  0  0
  5  6  1  0  0  0
  4  7  1  0  0  0
  7  8  1  0  0  0
  8  9  2  0  0  0
  8 10  1  0  0  0
 10 11  1  0  0  0
 11 12  2  0  0  0
 12 13  1  0  0  0
 13 14  1  0  0  0
 13 15  2  0  0  0
 15 16  1  0  0  0
 16 17  2  0  0  0
 23 24  1  0  0  0
 24 25  2  0  0  0
 29 32  1  0  0  0
 32 33  1  0  0  0
 32 34  2  0  0  0
 31 27  2  0  0  0
 25 20  1  0  0  0
  6  1  1  0  0  0
 17  7  1  0  0  0
 17 11  1  0  0  0
 10 18  1  0  0  0
 33 35  1  0  0  0
M  END
> <minimizedAffinity>
-7.84236

> <CNNscore>
0.1135214865

> <CNNaffinity>
6.3809933662

> <CNN_VS>
0.7243798375

> <CNNaffinity_variance>
0.1615558416

$$$$
[H]c1c([H])c(-c2c([H])c(F)c([H])c(C([H])([H])n3c(C([H])([H])C(=O)N([H])[H])nc4c([H])c(-c5c([H])c(C#N)nn5C([H])([H])[H])c([H])c([H])c43)c2[H])c([H])c([H])c1F


 38 42  0  0  0  0  0  0  0  0999 V2000
    0.0169  -52.6591  -23.0793 C   0  0  0  0  0  0  0  0  0  0  0  0
   -0.7936  -53.5105  -22.3783 C   0  0  0  0  0  0  0  0  0  0  0  0
   -0.8507  -53.5103  -20.9779 C   0  0  0  0  0  0  0  0  0  0  0  0
   -0.0936  -52.6532  -20.2210 C   0  0  0  0  0  0  0  0  0  0  0  0
    0.0396  -52.4410  -18.8807 N   0  0  0  0  0  0  0  0  0  0  0  0
    0.9318  -51.4562  -18.7098 C   0  0  0  0  0  0  0  0  0  0  0  0
    1.3340  -51.0778  -19.9401 N   0  0  0  0  0  0  0  0  0  0  0  0
    0.7277  -51.7892  -20.9019 C   0  0  0  0  0  0  0  0  0  0  0  0
    0.7800  -51.7930  -22.2722 C   0  0  0  0  0  0  0  0  0  0  0  0
    2.6126  -52.2931  -24.9033 C   0  0  0  0  0  0  0  0  0  0  0  0
    1.2238  -52.4122  -25.2631 N   0  0  0  0  0  0  0  0  0  0  0  0
    0.8603  -52.3816  -26.5671 N   0  0  0  0  0  0  0  0  0  0  0  0
   -0.4553  -52.5116  -26.6861 C   0  0  0  0  0  0  0  0  0  0  0  0
   -0.9198  -52.6273  -25.3924 C   0  0  0  0  0  0  0  0  0  0  0  0
    0.1494  -52.5623  -24.5164 C   0  0  0  0  0  0  0  0  0  0  0  0
   -1.2566  -52.5319  -27.8844 C   0  0  0  0  0  0  0  0  0  0  0  0
   -1.8913  -52.5373  -28.8552 N   0  0  0  0  0  0  0  0  0  0  0  0
   -0.6892  -53.1573  -17.8940 C   0  0  0  0  0  0  0  0  0  0  0  0
   -1.6702  -52.4346  -17.0904 C   0  0  0  0  0  0  0  0  0  0  0  0
   -2.9506  -52.9232  -17.0296 C   0  0  0  0  0  0  0  0  0  0  0  0
   -3.9095  -52.2868  -16.2817 C   0  0  0  0  0  0  0  0  0  0  0  0
   -5.1935  -52.7484  -16.2009 F   0  0  0  0  0  0  0  0  0  0  0  0
   -3.6275  -51.1421  -15.5683 C   0  0  0  0  0  0  0  0  0  0  0  0
   -2.3233  -50.6609  -15.6411 C   0  0  0  0  0  0  0  0  0  0  0  0
   -1.3673  -51.3010  -16.3908 C   0  0  0  0  0  0  0  0  0  0  0  0
   -2.0334  -49.4427  -14.8767 C   0  0  0  0  0  0  0  0  0  0  0  0
   -2.4824  -48.2190  -15.3258 C   0  0  0  0  0  0  0  0  0  0  0  0
   -2.2188  -47.0449  -14.6180 C   0  0  0  0  0  0  0  0  0  0  0  0
   -1.4990  -47.0770  -13.4448 C   0  0  0  0  0  0  0  0  0  0  0  0
   -1.2324  -45.9328  -12.7387 F   0  0  0  0  0  0  0  0  0  0  0  0
   -1.0503  -48.2977  -12.9953 C   0  0  0  0  0  0  0  0  0  0  0  0
   -1.3136  -49.4597  -13.7000 C   0  0  0  0  0  0  0  0  0  0  0  0
    1.4432  -50.8378  -17.4328 C   0  0  0  0  0  0  0  0  0  0  0  0
    2.8387  -50.3744  -17.5566 C   0  0  0  0  0  0  0  0  0  0  0  0
    3.1153  -49.0785  -18.0058 N   0  0  0  0  0  0  0  0  0  0  0  0
    3.7713  -51.1488  -17.2569 O   0  0  0  0  0  0  0  0  0  0  0  0
    3.8404  -48.8929  -18.7572 H   0  0  0  0  0  0  0  0  0  0  0  0
    2.5916  -48.2643  -17.5890 H   0  0  0  0  0  0  0  0  0  0  0  0
 10 11  1  0  0  0
 11 12  1  0  0  0
 12 13  2  0  0  0
 13 14  1  0  0  0
 14 15  2  0  0  0
 15  1  1  0  0  0
  1  2  2  0  0  0
  2  3  1  0  0  0
  3  4  2  0  0  0
  4  5  1  0  0  0
  5 18  1  0  0  0
 18 19  1  0  0  0
 19 20  2  0  0  0
 20 21  1  0  0  0
 21 22  1  0  0  0
 21 23  2  0  0  0
 23 24  1  0  0  0
 24 26  1  0  0  0
 26 27  2  0  0  0
 27 28  1  0  0  0
 28 29  2  0  0  0
 29 30  1  0  0  0
 29 31  1  0  0  0
 31 32  2  0  0  0
 24 25  2  0  0  0
  5  6  1  0  0  0
  6 33  1  0  0  0
 33 34  1  0  0  0
 34 35  1  0  0  0
 34 36  2  0  0  0
  6  7  2  0  0  0
  7  8  1  0  0  0
  8  9  2  0  0  0
 13 16  1  0  0  0
 16 17  3  0  0  0
 15 11  1  0  0  0
  9  1  1  0  0  0
  8  4  1  0  0  0
 25 19  1  0  0  0
 32 26  1  0  0  0
 35 37  1  0  0  0
 35 38  1  0  0  0
M  END
> <minimizedAffinity>
-8.17758

> <CNNscore>
0.2441316396

> <CNNaffinity>
6.6703071594

> <CNN_VS>
1.6284329891

> <CNNaffinity_variance>
0.1210924536

$$$$
[H]c1c([H])c(-c2c([H])c(F)c([H])c(C([H])([H])n3c(C([H])([H])C(=O)N([H])[H])nc4c([H])c(-c5c([H])c(C#N)nn5C([H])([H])[H])c([H])c([H])c43)c2[H])c([H])c([H])c1F


 38 42  0  0  0  0  0  0  0  0999 V2000
    0.2983  -51.7209  -20.7796 C   0  0  0  0  0  0  0  0  0  0  0  0
    0.3744  -50.4979  -21.3894 C   0  0  0  0  0  0  0  0  0  0  0  0
    1.0635  -49.4175  -20.8219 C   0  0  0  0  0  0  0  0  0  0  0  0
    1.7061  -49.5201  -19.6147 C   0  0  0  0  0  0  0  0  0  0  0  0
    2.4358  -48.6544  -18.8550 N   0  0  0  0  0  0  0  0  0  0  0  0
    2.8332  -49.3103  -17.7563 C   0  0  0  0  0  0  0  0  0  0  0  0
    2.3453  -50.5637  -17.8537 N   0  0  0  0  0  0  0  0  0  0  0  0
    1.6439  -50.7376  -18.9835 C   0  0  0  0  0  0  0  0  0  0  0  0
    0.9685  -51.7919  -19.5428 C   0  0  0  0  0  0  0  0  0  0  0  0
   -1.9375  -53.5561  -19.4262 C   0  0  0  0  0  0  0  0  0  0  0  0
   -1.2937  -53.6567  -20.7099 N   0  0  0  0  0  0  0  0  0  0  0  0
   -1.6304  -54.6585  -21.5562 N   0  0  0  0  0  0  0  0  0  0  0  0
   -0.9315  -54.5712  -22.6813 C   0  0  0  0  0  0  0  0  0  0  0  0
   -0.1280  -53.4624  -22.5158 C   0  0  0  0  0  0  0  0  0  0  0  0
   -0.3711  -52.9044  -21.2731 C   0  0  0  0  0  0  0  0  0  0  0  0
   -0.9752  -55.4268  -23.8409 C   0  0  0  0  0  0  0  0  0  0  0  0
   -1.0029  -56.1035  -24.7825 N   0  0  0  0  0  0  0  0  0  0  0  0
    2.7095  -47.3130  -19.2336 C   0  0  0  0  0  0  0  0  0  0  0  0
    3.6848  -47.0726  -20.2926 C   0  0  0  0  0  0  0  0  0  0  0  0
    4.8950  -46.5236  -19.9522 C   0  0  0  0  0  0  0  0  0  0  0  0
    5.8506  -46.2850  -20.9081 C   0  0  0  0  0  0  0  0  0  0  0  0
    7.0656  -45.7393  -20.6011 F   0  0  0  0  0  0  0  0  0  0  0  0
    5.6352  -46.5845  -22.2358 C   0  0  0  0  0  0  0  0  0  0  0  0
    4.4020  -47.1413  -22.5629 C   0  0  0  0  0  0  0  0  0  0  0  0
    3.4489  -47.3782  -21.6030 C   0  0  0  0  0  0  0  0  0  0  0  0
    4.1835  -47.4578  -23.9786 C   0  0  0  0  0  0  0  0  0  0  0  0
    4.7734  -46.6897  -24.9598 C   0  0  0  0  0  0  0  0  0  0  0  0
    4.5804  -46.9688  -26.3140 C   0  0  0  0  0  0  0  0  0  0  0  0
    3.7909  -48.0252  -26.7092 C   0  0  0  0  0  0  0  0  0  0  0  0
    3.5920  -48.3117  -28.0349 F   0  0  0  0  0  0  0  0  0  0  0  0
    3.2015  -48.7927  -25.7310 C   0  0  0  0  0  0  0  0  0  0  0  0
    3.3952  -48.5128  -24.3892 C   0  0  0  0  0  0  0  0  0  0  0  0
    3.6588  -48.8193  -16.5935 C   0  0  0  0  0  0  0  0  0  0  0  0
    2.8419  -48.1141  -15.5871 C   0  0  0  0  0  0  0  0  0  0  0  0
    1.8905  -48.8119  -14.8351 N   0  0  0  0  0  0  0  0  0  0  0  0
    3.0069  -46.8888  -15.4119 O   0  0  0  0  0  0  0  0  0  0  0  0
    0.9029  -48.4460  -14.7096 H   0  0  0  0  0  0  0  0  0  0  0  0
    2.1588  -49.7243  -14.3806 H   0  0  0  0  0  0  0  0  0  0  0  0
 10 11  1  0  0  0
 11 12  1  0  0  0
 12 13  2  0  0  0
 13 14  1  0  0  0
 14 15  2  0  0  0
 15  1  1  0  0  0
  1  2  2  0  0  0
  2  3  1  0  0  0
  3  4  2  0  0  0
  4  5  1  0  0  0
  5 18  1  0  0  0
 18 19  1  0  0  0
 19 20  2  0  0  0
 20 21  1  0  0  0
 21 22  1  0  0  0
 21 23  2  0  0  0
 23 24  1  0  0  0
 24 26  1  0  0  0
 26 27  2  0  0  0
 27 28  1  0  0  0
 28 29  2  0  0  0
 29 30  1  0  0  0
 29 31  1  0  0  0
 31 32  2  0  0  0
 24 25  2  0  0  0
  5  6  1  0  0  0
  6 33  1  0  0  0
 33 34  1  0  0  0
 34 35  1  0  0  0
 34 36  2  0  0  0
  6  7  2  0  0  0
  7  8  1  0  0  0
  8  9  2  0  0  0
 13 16  1  0  0  0
 16 17  3  0  0  0
 15 11  1  0  0  0
  9  1  1  0  0  0
  8  4  1  0  0  0
 25 19  1  0  0  0
 32 26  1  0  0  0
 35 37  1  0  0  0
 35 38  1  0  0  0
M  END
> <minimizedAffinity>
-6.33395

> <CNNscore>
0.2389840782

> <CNNaffinity>
6.8085794449

> <CNN_VS>
1.6271420717

> <CNNaffinity_variance>
0.1165521592

$$$$
[H]c1c([H])c(-c2c([H])c(F)c([H])c(C([H])([H])n3c(C([H])([H])C(=O)N([H])[H])nc4c([H])c(-c5c([H])c(C#N)nn5C([H])([H])[H])c([H])c([H])c43)c2[H])c([H])c([H])c1F


 38 42  0  0  0  0  0  0  0  0999 V2000
   -0.0939  -52.3249  -19.4352 C   0  0  0  0  0  0  0  0  0  0  0  0
    1.2078  -52.0145  -19.7223 C   0  0  0  0  0  0  0  0  0  0  0  0
    1.7418  -52.1362  -21.0124 C   0  0  0  0  0  0  0  0  0  0  0  0
    0.9890  -52.5766  -22.0708 C   0  0  0  0  0  0  0  0  0  0  0  0
    1.2454  -52.7793  -23.3945 N   0  0  0  0  0  0  0  0  0  0  0  0
    0.1164  -53.2189  -23.9666 C   0  0  0  0  0  0  0  0  0  0  0  0
   -0.8145  -53.2810  -22.9928 N   0  0  0  0  0  0  0  0  0  0  0  0
   -0.3204  -52.8942  -21.8075 C   0  0  0  0  0  0  0  0  0  0  0  0
   -0.8384  -52.7734  -20.5436 C   0  0  0  0  0  0  0  0  0  0  0  0
    0.8398  -50.9202  -16.7235 C   0  0  0  0  0  0  0  0  0  0  0  0
   -0.3631  -51.6465  -17.0365 N   0  0  0  0  0  0  0  0  0  0  0  0
   -1.3187  -51.8074  -16.0908 N   0  0  0  0  0  0  0  0  0  0  0  0
   -2.3435  -52.4962  -16.5780 C   0  0  0  0  0  0  0  0  0  0  0  0
   -1.9987  -52.7702  -17.8851 C   0  0  0  0  0  0  0  0  0  0  0  0
   -0.7535  -52.2285  -18.1515 C   0  0  0  0  0  0  0  0  0  0  0  0
   -3.5633  -52.8897  -15.9179 C   0  0  0  0  0  0  0  0  0  0  0  0
   -4.5507  -53.2109  -15.4011 N   0  0  0  0  0  0  0  0  0  0  0  0
    2.5047  -52.5247  -24.0004 C   0  0  0  0  0  0  0  0  0  0  0  0
    2.8640  -51.1438  -24.3078 C   0  0  0  0  0  0  0  0  0  0  0  0
    2.9523  -50.7707  -25.6249 C   0  0  0  0  0  0  0  0  0  0  0  0
    3.2783  -49.4826  -25.9687 C   0  0  0  0  0  0  0  0  0  0  0  0
    3.3743  -49.0798  -27.2714 F   0  0  0  0  0  0  0  0  0  0  0  0
    3.5277  -48.5210  -25.0137 C   0  0  0  0  0  0  0  0  0  0  0  0
    3.4332  -48.9171  -23.6826 C   0  0  0  0  0  0  0  0  0  0  0  0
    3.1067  -50.2071  -23.3435 C   0  0  0  0  0  0  0  0  0  0  0  0
    3.6991  -47.8854  -22.6740 C   0  0  0  0  0  0  0  0  0  0  0  0
    3.9163  -48.2405  -21.3597 C   0  0  0  0  0  0  0  0  0  0  0  0
    4.1700  -47.2782  -20.3804 C   0  0  0  0  0  0  0  0  0  0  0  0
    4.2106  -45.9402  -20.7025 C   0  0  0  0  0  0  0  0  0  0  0  0
    4.4586  -44.9840  -19.7522 F   0  0  0  0  0  0  0  0  0  0  0  0
    3.9941  -45.5845  -22.0139 C   0  0  0  0  0  0  0  0  0  0  0  0
    3.7428  -46.5415  -22.9820 C   0  0  0  0  0  0  0  0  0  0  0  0
   -0.1459  -53.5956  -25.4033 C   0  0  0  0  0  0  0  0  0  0  0  0
   -0.8147  -52.5135  -26.1511 C   0  0  0  0  0  0  0  0  0  0  0  0
   -1.8225  -52.8118  -27.0746 N   0  0  0  0  0  0  0  0  0  0  0  0
   -0.4736  -51.3288  -25.9527 O   0  0  0  0  0  0  0  0  0  0  0  0
   -1.8300  -52.3875  -28.0466 H   0  0  0  0  0  0  0  0  0  0  0  0
   -2.5951  -53.4743  -26.8005 H   0  0  0  0  0  0  0  0  0  0  0  0
 10 11  1  0  0  0
 11 12  1  0  0  0
 12 13  2  0  0  0
 13 14  1  0  0  0
 14 15  2  0  0  0
 15  1  1  0  0  0
  1  2  2  0  0  0
  2  3  1  0  0  0
  3  4  2  0  0  0
  4  5  1  0  0  0
  5 18  1  0  0  0
 18 19  1  0  0  0
 19 20  2  0  0  0
 20 21  1  0  0  0
 21 22  1  0  0  0
 21 23  2  0  0  0
 23 24  1  0  0  0
 24 26  1  0  0  0
 26 27  2  0  0  0
 27 28  1  0  0  0
 28 29  2  0  0  0
 29 30  1  0  0  0
 29 31  1  0  0  0
 31 32  2  0  0  0
 24 25  2  0  0  0
  5  6  1  0  0  0
  6 33  1  0  0  0
 33 34  1  0  0  0
 34 35  1  0  0  0
 34 36  2  0  0  0
  6  7  2  0  0  0
  7  8  1  0  0  0
  8  9  2  0  0  0
 13 16  1  0  0  0
 16 17  3  0  0  0
 15 11  1  0  0  0
  9  1  1  0  0  0
  8  4  1  0  0  0
 25 19  1  0  0  0
 32 26  1  0  0  0
 35 37  1  0  0  0
 35 38  1  0  0  0
M  END
> <minimizedAffinity>
-7.34506

> <CNNscore>
0.2297888994

> <CNNaffinity>
7.0995435715

> <CNN_VS>
1.6313962936

> <CNNaffinity_variance>
0.1779934168

$$$$
[H]c1c([H])c(-c2c([H])c(F)c([H])c(C([H])([H])n3c(C([H])([H])C(=O)N([H])[H])nc4c([H])c(-c5c([H])c(C#N)nn5C([H])([H])[H])c([H])c([H])c43)c2[H])c([H])c([H])c1F


 38 42  0  0  0  0  0  0  0  0999 V2000
   -0.0341  -51.6504  -17.6590 C   0  0  0  0  0  0  0  0  0  0  0  0
    1.2142  -51.1139  -17.8233 C   0  0  0  0  0  0  0  0  0  0  0  0
    1.8871  -51.1403  -19.0525 C   0  0  0  0  0  0  0  0  0  0  0  0
    1.3331  -51.7087  -20.1709 C   0  0  0  0  0  0  0  0  0  0  0  0
    1.7517  -51.8641  -21.4592 N   0  0  0  0  0  0  0  0  0  0  0  0
    0.7809  -52.4981  -22.1305 C   0  0  0  0  0  0  0  0  0  0  0  0
   -0.2166  -52.7235  -21.2514 N   0  0  0  0  0  0  0  0  0  0  0  0
    0.0809  -52.2537  -20.0309 C   0  0  0  0  0  0  0  0  0  0  0  0
   -0.5736  -52.2254  -18.8262 C   0  0  0  0  0  0  0  0  0  0  0  0
    0.8649  -51.7278  -14.5956 C   0  0  0  0  0  0  0  0  0  0  0  0
   -0.4476  -51.7023  -15.1866 N   0  0  0  0  0  0  0  0  0  0  0  0
   -1.5444  -51.7023  -14.3926 N   0  0  0  0  0  0  0  0  0  0  0  0
   -2.6498  -51.6711  -15.1269 C   0  0  0  0  0  0  0  0  0  0  0  0
   -2.2084  -51.6511  -16.4336 C   0  0  0  0  0  0  0  0  0  0  0  0
   -0.8248  -51.6713  -16.4480 C   0  0  0  0  0  0  0  0  0  0  0  0
   -4.0240  -51.6597  -14.6912 C   0  0  0  0  0  0  0  0  0  0  0  0
   -5.1343  -51.6471  -14.3558 N   0  0  0  0  0  0  0  0  0  0  0  0
    3.0002  -51.3905  -21.9438 C   0  0  0  0  0  0  0  0  0  0  0  0
    3.0753  -50.0281  -22.4622 C   0  0  0  0  0  0  0  0  0  0  0  0
    3.0203  -48.9871  -21.5704 C   0  0  0  0  0  0  0  0  0  0  0  0
    3.0952  -47.6871  -22.0043 C   0  0  0  0  0  0  0  0  0  0  0  0
    3.0433  -46.6284  -21.1413 F   0  0  0  0  0  0  0  0  0  0  0  0
    3.2276  -47.3779  -23.3407 C   0  0  0  0  0  0  0  0  0  0  0  0
    3.2822  -48.4465  -24.2311 C   0  0  0  0  0  0  0  0  0  0  0  0
    3.2068  -49.7456  -23.7923 C   0  0  0  0  0  0  0  0  0  0  0  0
    3.4247  -48.1064  -25.6510 C   0  0  0  0  0  0  0  0  0  0  0  0
    4.0285  -48.9915  -26.5187 C   0  0  0  0  0  0  0  0  0  0  0  0
    4.1777  -48.6915  -27.8740 C   0  0  0  0  0  0  0  0  0  0  0  0
    3.7231  -47.4963  -28.3844 C   0  0  0  0  0  0  0  0  0  0  0  0
    3.8623  -47.1877  -29.7127 F   0  0  0  0  0  0  0  0  0  0  0  0
    3.1201  -46.6121  -27.5195 C   0  0  0  0  0  0  0  0  0  0  0  0
    2.9740  -46.9131  -26.1763 C   0  0  0  0  0  0  0  0  0  0  0  0
    0.7337  -52.9171  -23.5786 C   0  0  0  0  0  0  0  0  0  0  0  0
   -0.4863  -53.6830  -23.8987 C   0  0  0  0  0  0  0  0  0  0  0  0
   -0.8402  -54.7996  -23.1336 N   0  0  0  0  0  0  0  0  0  0  0  0
   -1.2007  -53.3261  -24.8587 O   0  0  0  0  0  0  0  0  0  0  0  0
   -1.1220  -55.7170  -23.5851 H   0  0  0  0  0  0  0  0  0  0  0  0
   -0.8275  -54.7305  -22.0819 H   0  0  0  0  0  0  0  0  0  0  0  0
 10 11  1  0  0  0
 11 12  1  0  0  0
 12 13  2  0  0  0
 13 14  1  0  0  0
 14 15  2  0  0  0
 15  1  1  0  0  0
  1  2  2  0  0  0
  2  3  1  0  0  0
  3  4  2  0  0  0
  4  5  1  0  0  0
  5 18  1  0  0  0
 18 19  1  0  0  0
 19 20  2  0  0  0
 20 21  1  0  0  0
 21 22  1  0  0  0
 21 23  2  0  0  0
 23 24  1  0  0  0
 24 26  1  0  0  0
 26 27  2  0  0  0
 27 28  1  0  0  0
 28 29  2  0  0  0
 29 30  1  0  0  0
 29 31  1  0  0  0
 31 32  2  0  0  0
 24 25  2  0  0  0
  5  6  1  0  0  0
  6 33  1  0  0  0
 33 34  1  0  0  0
 34 35  1  0  0  0
 34 36  2  0  0  0
  6  7  2  0  0  0
  7  8  1  0  0  0
  8  9  2  0  0  0
 13 16  1  0  0  0
 16 17  3  0  0  0
 15 11  1  0  0  0
  9  1  1  0  0  0
  8  4  1  0  0  0
 25 19  1  0  0  0
 32 26  1  0  0  0
 35 37  1  0  0  0
 35 38  1  0  0  0
M  END
> <minimizedAffinity>
-7.41052

> <CNNscore>
0.2209084034

> <CNNaffinity>
6.8495283127

> <CNN_VS>
1.5131183863

> <CNNaffinity_variance>
0.2830426693

$$$$
[H]c1c([H])c(-c2c([H])c(F)c([H])c(C([H])([H])n3c(C([H])([H])C(=O)N([H])[H])nc4c([H])c(-c5c([H])c(C#N)nn5C([H])([H])[H])c([H])c([H])c43)c2[H])c([H])c([H])c1F


 38 42  0  0  0  0  0  0  0  0999 V2000
   -0.1000  -52.4710  -22.7670 C   0  0  0  0  0  0  0  0  0  0  0  0
    0.4121  -51.2464  -22.4333 C   0  0  0  0  0  0  0  0  0  0  0  0
    0.4306  -50.7744  -21.1138 C   0  0  0  0  0  0  0  0  0  0  0  0
   -0.0665  -51.5142  -20.0715 C   0  0  0  0  0  0  0  0  0  0  0  0
   -0.1674  -51.3066  -18.7277 N   0  0  0  0  0  0  0  0  0  0  0  0
   -0.7419  -52.3906  -18.1890 C   0  0  0  0  0  0  0  0  0  0  0  0
   -0.9859  -53.2459  -19.2026 N   0  0  0  0  0  0  0  0  0  0  0  0
   -0.5858  -52.7466  -20.3814 C   0  0  0  0  0  0  0  0  0  0  0  0
   -0.6016  -53.2042  -21.6740 C   0  0  0  0  0  0  0  0  0  0  0  0
   -1.1271  -55.3465  -23.7023 C   0  0  0  0  0  0  0  0  0  0  0  0
   -0.5876  -54.2508  -24.4644 N   0  0  0  0  0  0  0  0  0  0  0  0
   -0.4623  -54.3614  -25.8081 N   0  0  0  0  0  0  0  0  0  0  0  0
    0.0466  -53.2478  -26.3207 C   0  0  0  0  0  0  0  0  0  0  0  0
    0.2424  -52.4151  -25.2386 C   0  0  0  0  0  0  0  0  0  0  0  0
   -0.1617  -53.0637  -24.0850 C   0  0  0  0  0  0  0  0  0  0  0  0
    0.3429  -52.9400  -27.6976 C   0  0  0  0  0  0  0  0  0  0  0  0
    0.5792  -52.6765  -28.8022 N   0  0  0  0  0  0  0  0  0  0  0  0
    0.2980  -50.1339  -18.0751 C   0  0  0  0  0  0  0  0  0  0  0  0
    1.7361  -49.9609  -17.8944 C   0  0  0  0  0  0  0  0  0  0  0  0
    2.3926  -50.8093  -17.0396 C   0  0  0  0  0  0  0  0  0  0  0  0
    3.7458  -50.6953  -16.8401 C   0  0  0  0  0  0  0  0  0  0  0  0
    4.4287  -51.5249  -15.9953 F   0  0  0  0  0  0  0  0  0  0  0  0
    4.4925  -49.7330  -17.4845 C   0  0  0  0  0  0  0  0  0  0  0  0
    3.8100  -48.8812  -18.3484 C   0  0  0  0  0  0  0  0  0  0  0  0
    2.4560  -48.9991  -18.5448 C   0  0  0  0  0  0  0  0  0  0  0  0
    4.6145  -47.8614  -19.0304 C   0  0  0  0  0  0  0  0  0  0  0  0
    5.9324  -48.1149  -19.3462 C   0  0  0  0  0  0  0  0  0  0  0  0
    6.7199  -47.1611  -19.9938 C   0  0  0  0  0  0  0  0  0  0  0  0
    6.1988  -45.9338  -20.3369 C   0  0  0  0  0  0  0  0  0  0  0  0
    6.9595  -44.9873  -20.9728 F   0  0  0  0  0  0  0  0  0  0  0  0
    4.8836  -45.6795  -20.0223 C   0  0  0  0  0  0  0  0  0  0  0  0
    4.1060  -46.6277  -19.3802 C   0  0  0  0  0  0  0  0  0  0  0  0
   -1.0861  -52.6765  -16.7486 C   0  0  0  0  0  0  0  0  0  0  0  0
   -2.3732  -52.0737  -16.3519 C   0  0  0  0  0  0  0  0  0  0  0  0
   -2.3998  -50.8620  -15.6527 N   0  0  0  0  0  0  0  0  0  0  0  0
   -3.4391  -52.6541  -16.6455 O   0  0  0  0  0  0  0  0  0  0  0  0
   -2.9973  -50.7326  -14.7861 H   0  0  0  0  0  0  0  0  0  0  0  0
   -1.8124  -50.0558  -15.9934 H   0  0  0  0  0  0  0  0  0  0  0  0
 10 11  1  0  0  0
 11 12  1  0  0  0
 12 13  2  0  0  0
 13 14  1  0  0  0
 14 15  2  0  0  0
 15  1  1  0  0  0
  1  2  2  0  0  0
  2  3  1  0  0  0
  3  4  2  0  0  0
  4  5  1  0  0  0
  5 18  1  0  0  0
 18 19  1  0  0  0
 19 20  2  0  0  0
 20 21  1  0  0  0
 21 22  1  0  0  0
 21 23  2  0  0  0
 23 24  1  0  0  0
 24 26  1  0  0  0
 26 27  2  0  0  0
 27 28  1  0  0  0
 28 29  2  0  0  0
 29 30  1  0  0  0
 29 31  1  0  0  0
 31 32  2  0  0  0
 24 25  2  0  0  0
  5  6  1  0  0  0
  6 33  1  0  0  0
 33 34  1  0  0  0
 34 35  1  0  0  0
 34 36  2  0  0  0
  6  7  2  0  0  0
  7  8  1  0  0  0
  8  9  2  0  0  0
 13 16  1  0  0  0
 16 17  3  0  0  0
 15 11  1  0  0  0
  9  1  1  0  0  0
  8  4  1  0  0  0
 25 19  1  0  0  0
 32 26  1  0  0  0
 35 37  1  0  0  0
 35 38  1  0  0  0
M  END
> <minimizedAffinity>
-7.18502

> <CNNscore>
0.2170544863

> <CNNaffinity>
7.0536546707

> <CNN_VS>
1.5310274363

> <CNNaffinity_variance>
0.4144638181

$$$$
[H]c1c([H])c(-c2c([H])c(F)c([H])c(C([H])([H])n3c(C([H])([H])C(=O)N([H])[H])nc4c([H])c(-c5c([H])c(C#N)nn5C([H])([H])[H])c([H])c([H])c43)c2[H])c([H])c([H])c1F


 38 42  0  0  0  0  0  0  0  0999 V2000
    0.7509  -52.6133  -23.2106 C   0  0  0  0  0  0  0  0  0  0  0  0
    2.0038  -52.1494  -22.9135 C   0  0  0  0  0  0  0  0  0  0  0  0
    2.3372  -51.6438  -21.6496 C   0  0  0  0  0  0  0  0  0  0  0  0
    1.4235  -51.5820  -20.6287 C   0  0  0  0  0  0  0  0  0  0  0  0
    1.4780  -51.1542  -19.3352 N   0  0  0  0  0  0  0  0  0  0  0  0
    0.2670  -51.3389  -18.7926 C   0  0  0  0  0  0  0  0  0  0  0  0
   -0.5125  -51.8745  -19.7539 N   0  0  0  0  0  0  0  0  0  0  0  0
    0.1593  -52.0417  -20.9026 C   0  0  0  0  0  0  0  0  0  0  0  0
   -0.1621  -52.5357  -22.1408 C   0  0  0  0  0  0  0  0  0  0  0  0
   -0.9932  -55.2166  -23.8267 C   0  0  0  0  0  0  0  0  0  0  0  0
   -0.4226  -54.2389  -24.7161 N   0  0  0  0  0  0  0  0  0  0  0  0
   -0.6077  -54.3541  -26.0525 N   0  0  0  0  0  0  0  0  0  0  0  0
   -0.0103  -53.3563  -26.6923 C   0  0  0  0  0  0  0  0  0  0  0  0
    0.5685  -52.5932  -25.6996 C   0  0  0  0  0  0  0  0  0  0  0  0
    0.2977  -53.1645  -24.4688 C   0  0  0  0  0  0  0  0  0  0  0  0
    0.0433  -53.0947  -28.1090 C   0  0  0  0  0  0  0  0  0  0  0  0
    0.1025  -52.8825  -29.2478 N   0  0  0  0  0  0  0  0  0  0  0  0
    2.6523  -50.6373  -18.7257 C   0  0  0  0  0  0  0  0  0  0  0  0
    2.9752  -49.2270  -18.9191 C   0  0  0  0  0  0  0  0  0  0  0  0
    3.0673  -48.4215  -17.8125 C   0  0  0  0  0  0  0  0  0  0  0  0
    3.3764  -47.0902  -17.9378 C   0  0  0  0  0  0  0  0  0  0  0  0
    3.4756  -46.2617  -16.8552 F   0  0  0  0  0  0  0  0  0  0  0  0
    3.6048  -46.5142  -19.1687 C   0  0  0  0  0  0  0  0  0  0  0  0
    3.5075  -47.3464  -20.2803 C   0  0  0  0  0  0  0  0  0  0  0  0
    3.1979  -48.6779  -20.1500 C   0  0  0  0  0  0  0  0  0  0  0  0
    3.7539  -46.7236  -21.5856 C   0  0  0  0  0  0  0  0  0  0  0  0
    3.0476  -47.1367  -22.6952 C   0  0  0  0  0  0  0  0  0  0  0  0
    3.2640  -46.5615  -23.9488 C   0  0  0  0  0  0  0  0  0  0  0  0
    4.1943  -45.5597  -24.1122 C   0  0  0  0  0  0  0  0  0  0  0  0
    4.4178  -44.9853  -25.3366 F   0  0  0  0  0  0  0  0  0  0  0  0
    4.8999  -45.1464  -23.0056 C   0  0  0  0  0  0  0  0  0  0  0  0
    4.6825  -45.7192  -21.7643 C   0  0  0  0  0  0  0  0  0  0  0  0
   -0.2140  -51.0331  -17.3962 C   0  0  0  0  0  0  0  0  0  0  0  0
   -0.6085  -52.2509  -16.6622 C   0  0  0  0  0  0  0  0  0  0  0  0
   -1.4566  -53.1908  -17.2578 N   0  0  0  0  0  0  0  0  0  0  0  0
   -0.1788  -52.4359  -15.5044 O   0  0  0  0  0  0  0  0  0  0  0  0
   -2.2956  -53.5875  -16.7444 H   0  0  0  0  0  0  0  0  0  0  0  0
   -1.2595  -53.5147  -18.2413 H   0  0  0  0  0  0  0  0  0  0  0  0
 10 11  1  0  0  0
 11 12  1  0  0  0
 12 13  2  0  0  0
 13 14  1  0  0  0
 14 15  2  0  0  0
 15  1  1  0  0  0
  1  2  2  0  0  0
  2  3  1  0  0  0
  3  4  2  0  0  0
  4  5  1  0  0  0
  5 18  1  0  0  0
 18 19  1  0  0  0
 19 20  2  0  0  0
 20 21  1  0  0  0
 21 22  1  0  0  0
 21 23  2  0  0  0
 23 24  1  0  0  0
 24 26  1  0  0  0
 26 27  2  0  0  0
 27 28  1  0  0  0
 28 29  2  0  0  0
 29 30  1  0  0  0
 29 31  1  0  0  0
 31 32  2  0  0  0
 24 25  2  0  0  0
  5  6  1  0  0  0
  6 33  1  0  0  0
 33 34  1  0  0  0
 34 35  1  0  0  0
 34 36  2  0  0  0
  6  7  2  0  0  0
  7  8  1  0  0  0
  8  9  2  0  0  0
 13 16  1  0  0  0
 16 17  3  0  0  0
 15 11  1  0  0  0
  9  1  1  0  0  0
  8  4  1  0  0  0
 25 19  1  0  0  0
 32 26  1  0  0  0
 35 37  1  0  0  0
 35 38  1  0  0  0
M  END
> <minimizedAffinity>
-7.76030

> <CNNscore>
0.1996568441

> <CNNaffinity>
6.9661345482

> <CNN_VS>
1.3908364773

> <CNNaffinity_variance>
0.1508204192

$$$$
[H]c1c([H])c(-c2c([H])c(F)c([H])c(C([H])([H])n3c(C([H])([H])C(=O)N([H])[H])nc4c([H])c(-c5c([H])c(C#N)nn5C([H])([H])[H])c([H])c([H])c43)c2[H])c([H])c([H])c1F


 38 42  0  0  0  0  0  0  0  0999 V2000
    0.5452  -52.4401  -22.6551 C   0  0  0  0  0  0  0  0  0  0  0  0
    1.6163  -51.6258  -22.4039 C   0  0  0  0  0  0  0  0  0  0  0  0
    1.9536  -51.2067  -21.1097 C   0  0  0  0  0  0  0  0  0  0  0  0
    1.2271  -51.5883  -20.0109 C   0  0  0  0  0  0  0  0  0  0  0  0
    1.3320  -51.3393  -18.6745 N   0  0  0  0  0  0  0  0  0  0  0  0
    0.3348  -51.9884  -18.0585 C   0  0  0  0  0  0  0  0  0  0  0  0
   -0.3669  -52.6243  -19.0186 N   0  0  0  0  0  0  0  0  0  0  0  0
    0.1476  -52.4055  -20.2377 C   0  0  0  0  0  0  0  0  0  0  0  0
   -0.1785  -52.8131  -21.5058 C   0  0  0  0  0  0  0  0  0  0  0  0
   -1.1488  -55.0428  -23.3998 C   0  0  0  0  0  0  0  0  0  0  0  0
   -0.5889  -54.0171  -24.2405 N   0  0  0  0  0  0  0  0  0  0  0  0
   -0.7623  -54.0760  -25.5821 N   0  0  0  0  0  0  0  0  0  0  0  0
   -0.1778  -53.0407  -26.1722 C   0  0  0  0  0  0  0  0  0  0  0  0
    0.3805  -52.3126  -25.1422 C   0  0  0  0  0  0  0  0  0  0  0  0
    0.1108  -52.9426  -23.9400 C   0  0  0  0  0  0  0  0  0  0  0  0
   -0.1185  -52.7156  -27.5755 C   0  0  0  0  0  0  0  0  0  0  0  0
   -0.0836  -52.4443  -28.7027 N   0  0  0  0  0  0  0  0  0  0  0  0
    2.3583  -50.5426  -18.1004 C   0  0  0  0  0  0  0  0  0  0  0  0
    2.2602  -50.1919  -16.6869 C   0  0  0  0  0  0  0  0  0  0  0  0
    3.0617  -50.8558  -15.7932 C   0  0  0  0  0  0  0  0  0  0  0  0
    3.0151  -50.5587  -14.4540 C   0  0  0  0  0  0  0  0  0  0  0  0
    3.8004  -51.2020  -13.5388 F   0  0  0  0  0  0  0  0  0  0  0  0
    2.1693  -49.5906  -13.9577 C   0  0  0  0  0  0  0  0  0  0  0  0
    1.3637  -48.9269  -14.8788 C   0  0  0  0  0  0  0  0  0  0  0  0
    1.4139  -49.2276  -16.2178 C   0  0  0  0  0  0  0  0  0  0  0  0
    0.4682  -47.8972  -14.3402 C   0  0  0  0  0  0  0  0  0  0  0  0
   -0.7098  -48.2576  -13.7213 C   0  0  0  0  0  0  0  0  0  0  0  0
   -1.5800  -47.2974  -13.2017 C   0  0  0  0  0  0  0  0  0  0  0  0
   -1.2836  -45.9560  -13.2936 C   0  0  0  0  0  0  0  0  0  0  0  0
   -2.1279  -45.0017  -12.7882 F   0  0  0  0  0  0  0  0  0  0  0  0
   -0.1081  -45.5949  -13.9110 C   0  0  0  0  0  0  0  0  0  0  0  0
    0.7521  -46.5499  -14.4250 C   0  0  0  0  0  0  0  0  0  0  0  0
   -0.0085  -52.0460  -16.5910 C   0  0  0  0  0  0  0  0  0  0  0  0
   -1.3330  -51.4623  -16.3040 C   0  0  0  0  0  0  0  0  0  0  0  0
   -2.3598  -52.2607  -15.7885 N   0  0  0  0  0  0  0  0  0  0  0  0
   -1.5300  -50.2493  -16.5252 O   0  0  0  0  0  0  0  0  0  0  0  0
   -3.3386  -52.2407  -16.1965 H   0  0  0  0  0  0  0  0  0  0  0  0
   -2.1588  -52.8990  -14.9741 H   0  0  0  0  0  0  0  0  0  0  0  0
 10 11  1  0  0  0
 11 12  1  0  0  0
 12 13  2  0  0  0
 13 14  1  0  0  0
 14 15  2  0  0  0
 15  1  1  0  0  0
  1  2  2  0  0  0
  2  3  1  0  0  0
  3  4  2  0  0  0
  4  5  1  0  0  0
  5 18  1  0  0  0
 18 19  1  0  0  0
 19 20  2  0  0  0
 20 21  1  0  0  0
 21 22  1  0  0  0
 21 23  2  0  0  0
 23 24  1  0  0  0
 24 26  1  0  0  0
 26 27  2  0  0  0
 27 28  1  0  0  0
 28 29  2  0  0  0
 29 30  1  0  0  0
 29 31  1  0  0  0
 31 32  2  0  0  0
 24 25  2  0  0  0
  5  6  1  0  0  0
  6 33  1  0  0  0
 33 34  1  0  0  0
 34 35  1  0  0  0
 34 36  2  0  0  0
  6  7  2  0  0  0
  7  8  1  0  0  0
  8  9  2  0  0  0
 13 16  1  0  0  0
 16 17  3  0  0  0
 15 11  1  0  0  0
  9  1  1  0  0  0
  8  4  1  0  0  0
 25 19  1  0  0  0
 32 26  1  0  0  0
 35 37  1  0  0  0
 35 38  1  0  0  0
M  END
> <minimizedAffinity>
-6.78712

> <CNNscore>
0.1746974438

> <CNNaffinity>
6.7080068588

> <CNN_VS>
1.1718716621

> <CNNaffinity_variance>
0.3202010095

$$$$
[H]c1c([H])c(-c2c([H])c(F)c([H])c(C([H])([H])n3c(C([H])([H])C(=O)N([H])[H])nc4c([H])c(-c5c([H])c(C#N)nn5C([H])([H])[H])c([H])c([H])c43)c2[H])c([H])c([H])c1F


 38 42  0  0  0  0  0  0  0  0999 V2000
    0.4975  -51.7337  -19.1472 C   0  0  0  0  0  0  0  0  0  0  0  0
    1.8268  -51.8225  -19.4606 C   0  0  0  0  0  0  0  0  0  0  0  0
    2.2769  -52.0369  -20.7704 C   0  0  0  0  0  0  0  0  0  0  0  0
    1.4083  -52.1721  -21.8231 C   0  0  0  0  0  0  0  0  0  0  0  0
    1.5689  -52.3768  -23.1616 N   0  0  0  0  0  0  0  0  0  0  0  0
    0.3504  -52.4207  -23.7171 C   0  0  0  0  0  0  0  0  0  0  0  0
   -0.5388  -52.2437  -22.7188 N   0  0  0  0  0  0  0  0  0  0  0  0
    0.0691  -52.0866  -21.5337 C   0  0  0  0  0  0  0  0  0  0  0  0
   -0.3665  -51.8766  -20.2505 C   0  0  0  0  0  0  0  0  0  0  0  0
   -1.8915  -53.2277  -17.6442 C   0  0  0  0  0  0  0  0  0  0  0  0
   -1.0653  -52.1254  -17.2261 N   0  0  0  0  0  0  0  0  0  0  0  0
   -1.2527  -51.5670  -16.0069 N   0  0  0  0  0  0  0  0  0  0  0  0
   -0.3918  -50.5756  -15.8123 C   0  0  0  0  0  0  0  0  0  0  0  0
    0.3590  -50.5245  -16.9683 C   0  0  0  0  0  0  0  0  0  0  0  0
   -0.0800  -51.5046  -17.8410 C   0  0  0  0  0  0  0  0  0  0  0  0
   -0.2441  -49.7199  -14.6615 C   0  0  0  0  0  0  0  0  0  0  0  0
   -0.1363  -49.0213  -13.7419 N   0  0  0  0  0  0  0  0  0  0  0  0
    2.8356  -52.4898  -23.7943 C   0  0  0  0  0  0  0  0  0  0  0  0
    3.7981  -51.4055  -23.6259 C   0  0  0  0  0  0  0  0  0  0  0  0
    4.9515  -51.4363  -24.3680 C   0  0  0  0  0  0  0  0  0  0  0  0
    5.8857  -50.4373  -24.2541 C   0  0  0  0  0  0  0  0  0  0  0  0
    7.0443  -50.4392  -24.9793 F   0  0  0  0  0  0  0  0  0  0  0  0
    5.7046  -49.3729  -23.3979 C   0  0  0  0  0  0  0  0  0  0  0  0
    4.5286  -49.3577  -22.6532 C   0  0  0  0  0  0  0  0  0  0  0  0
    3.5967  -50.3596  -22.7705 C   0  0  0  0  0  0  0  0  0  0  0  0
    4.3450  -48.2196  -21.7460 C   0  0  0  0  0  0  0  0  0  0  0  0
    3.5469  -48.3451  -20.6288 C   0  0  0  0  0  0  0  0  0  0  0  0
    3.3547  -47.2771  -19.7505 C   0  0  0  0  0  0  0  0  0  0  0  0
    3.9606  -46.0617  -19.9772 C   0  0  0  0  0  0  0  0  0  0  0  0
    3.7814  -45.0040  -19.1239 F   0  0  0  0  0  0  0  0  0  0  0  0
    4.7574  -45.9350  -21.0918 C   0  0  0  0  0  0  0  0  0  0  0  0
    4.9456  -46.9963  -21.9604 C   0  0  0  0  0  0  0  0  0  0  0  0
   -0.0379  -52.6265  -25.1599 C   0  0  0  0  0  0  0  0  0  0  0  0
    0.1050  -54.0335  -25.5813 C   0  0  0  0  0  0  0  0  0  0  0  0
   -0.6723  -55.0319  -24.9842 N   0  0  0  0  0  0  0  0  0  0  0  0
    0.9259  -54.3258  -26.4757 O   0  0  0  0  0  0  0  0  0  0  0  0
   -0.2440  -55.9384  -24.6385 H   0  0  0  0  0  0  0  0  0  0  0  0
   -1.7098  -54.8824  -24.8740 H   0  0  0  0  0  0  0  0  0  0  0  0
 10 11  1  0  0  0
 11 12  1  0  0  0
 12 13  2  0  0  0
 13 14  1  0  0  0
 14 15  2  0  0  0
 15  1  1  0  0  0
  1  2  2  0  0  0
  2  3  1  0  0  0
  3  4  2  0  0  0
  4  5  1  0  0  0
  5 18  1  0  0  0
 18 19  1  0  0  0
 19 20  2  0  0  0
 20 21  1  0  0  0
 21 22  1  0  0  0
 21 23  2  0  0  0
 23 24  1  0  0  0
 24 26  1  0  0  0
 26 27  2  0  0  0
 27 28  1  0  0  0
 28 29  2  0  0  0
 29 30  1  0  0  0
 29 31  1  0  0  0
 31 32  2  0  0  0
 24 25  2  0  0  0
  5  6  1  0  0  0
  6 33  1  0  0  0
 33 34  1  0  0  0
 34 35  1  0  0  0
 34 36  2  0  0  0
  6  7  2  0  0  0
  7  8  1  0  0  0
  8  9  2  0  0  0
 13 16  1  0  0  0
 16 17  3  0  0  0
 15 11  1  0  0  0
  9  1  1  0  0  0
  8  4  1  0  0  0
 25 19  1  0  0  0
 32 26  1  0  0  0
 35 37  1  0  0  0
 35 38  1  0  0  0
M  END
> <minimizedAffinity>
-7.10837

> <CNNscore>
0.1725390702

> <CNNaffinity>
6.9746298790

> <CNN_VS>
1.2033962011

> <CNNaffinity_variance>
0.2644539773

$$$$
[H]c1c([H])c(-c2c([H])c(F)c([H])c(C([H])([H])n3c(C([H])([H])C(=O)N([H])[H])nc4c([H])c(-c5c([H])c(C#N)nn5C([H])([H])[H])c([H])c([H])c43)c2[H])c([H])c([H])c1F


 38 42  0  0  0  0  0  0  0  0999 V2000
    0.5550  -51.9161  -21.3296 C   0  0  0  0  0  0  0  0  0  0  0  0
    0.1107  -51.0125  -20.4025 C   0  0  0  0  0  0  0  0  0  0  0  0
    0.8901  -49.9280  -19.9774 C   0  0  0  0  0  0  0  0  0  0  0  0
    2.1519  -49.7054  -20.4664 C   0  0  0  0  0  0  0  0  0  0  0  0
    3.1003  -48.7528  -20.2381 N   0  0  0  0  0  0  0  0  0  0  0  0
    4.1566  -49.0342  -21.0129 C   0  0  0  0  0  0  0  0  0  0  0  0
    3.8462  -50.1501  -21.7034 N   0  0  0  0  0  0  0  0  0  0  0  0
    2.6197  -50.5987  -21.3979 C   0  0  0  0  0  0  0  0  0  0  0  0
    1.8534  -51.6583  -21.8109 C   0  0  0  0  0  0  0  0  0  0  0  0
   -1.8317  -53.6190  -20.0639 C   0  0  0  0  0  0  0  0  0  0  0  0
   -1.1460  -53.7581  -21.3220 N   0  0  0  0  0  0  0  0  0  0  0  0
   -1.5066  -54.7406  -22.1811 N   0  0  0  0  0  0  0  0  0  0  0  0
   -0.7613  -54.6950  -23.2786 C   0  0  0  0  0  0  0  0  0  0  0  0
    0.0971  -53.6334  -23.0818 C   0  0  0  0  0  0  0  0  0  0  0  0
   -0.1612  -53.0604  -21.8490 C   0  0  0  0  0  0  0  0  0  0  0  0
   -0.8091  -55.5486  -24.4394 C   0  0  0  0  0  0  0  0  0  0  0  0
   -0.8314  -56.2356  -25.3737 N   0  0  0  0  0  0  0  0  0  0  0  0
    2.9241  -47.6656  -19.3411 C   0  0  0  0  0  0  0  0  0  0  0  0
    3.2626  -47.8602  -17.9347 C   0  0  0  0  0  0  0  0  0  0  0  0
    4.0725  -46.9360  -17.3250 C   0  0  0  0  0  0  0  0  0  0  0  0
    4.4144  -47.0672  -16.0022 C   0  0  0  0  0  0  0  0  0  0  0  0
    5.2191  -46.1637  -15.3662 F   0  0  0  0  0  0  0  0  0  0  0  0
    3.9622  -48.1225  -15.2403 C   0  0  0  0  0  0  0  0  0  0  0  0
    3.1412  -49.0503  -15.8751 C   0  0  0  0  0  0  0  0  0  0  0  0
    2.8019  -48.9149  -17.1988 C   0  0  0  0  0  0  0  0  0  0  0  0
    2.6641  -50.1690  -15.0546 C   0  0  0  0  0  0  0  0  0  0  0  0
    1.3504  -50.5788  -15.1377 C   0  0  0  0  0  0  0  0  0  0  0  0
    0.8709  -51.6395  -14.3669 C   0  0  0  0  0  0  0  0  0  0  0  0
    1.7020  -52.3096  -13.4975 C   0  0  0  0  0  0  0  0  0  0  0  0
    1.2459  -53.3529  -12.7343 F   0  0  0  0  0  0  0  0  0  0  0  0
    3.0135  -51.9017  -13.4137 C   0  0  0  0  0  0  0  0  0  0  0  0
    3.4852  -50.8495  -14.1795 C   0  0  0  0  0  0  0  0  0  0  0  0
    5.4699  -48.3043  -21.1442 C   0  0  0  0  0  0  0  0  0  0  0  0
    6.1541  -48.6104  -22.4153 C   0  0  0  0  0  0  0  0  0  0  0  0
    6.7027  -49.8787  -22.6344 N   0  0  0  0  0  0  0  0  0  0  0  0
    6.2395  -47.7276  -23.2943 O   0  0  0  0  0  0  0  0  0  0  0  0
    7.6859  -50.0021  -23.0124 H   0  0  0  0  0  0  0  0  0  0  0  0
    6.1269  -50.7350  -22.4194 H   0  0  0  0  0  0  0  0  0  0  0  0
 10 11  1  0  0  0
 11 12  1  0  0  0
 12 13  2  0  0  0
 13 14  1  0  0  0
 14 15  2  0  0  0
 15  1  1  0  0  0
  1  2  2  0  0  0
  2  3  1  0  0  0
  3  4  2  0  0  0
  4  5  1  0  0  0
  5 18  1  0  0  0
 18 19  1  0  0  0
 19 20  2  0  0  0
 20 21  1  0  0  0
 21 22  1  0  0  0
 21 23  2  0  0  0
 23 24  1  0  0  0
 24 26  1  0  0  0
 26 27  2  0  0  0
 27 28  1  0  0  0
 28 29  2  0  0  0
 29 30  1  0  0  0
 29 31  1  0  0  0
 31 32  2  0  0  0
 24 25  2  0  0  0
  5  6  1  0  0  0
  6 33  1  0  0  0
 33 34  1  0  0  0
 34 35  1  0  0  0
 34 36  2  0  0  0
  6  7  2  0  0  0
  7  8  1  0  0  0
  8  9  2  0  0  0
 13 16  1  0  0  0
 16 17  3  0  0  0
 15 11  1  0  0  0
  9  1  1  0  0  0
  8  4  1  0  0  0
 25 19  1  0  0  0
 32 26  1  0  0  0
 35 37  1  0  0  0
 35 38  1  0  0  0
M  END
> <minimizedAffinity>
-6.36678

> <CNNscore>
0.1637935638

> <CNNaffinity>
6.6185545921

> <CNN_VS>
1.0840766430

> <CNNaffinity_variance>
0.1749911904

$$$$
[H]N=C(N([H])[H])N([H])C([H])([H])C([H])([H])C([H])([H])[C@@]([H])(C(=O)N([H])[C@]([H])(C(=O)N([H])[H])C([H])([H])c1c([H])c([H])c(O[H])c([H])c1[H])N([H])C(=O)[C@@]([H])(N([H])C(=O)[C@@]([H])(N([H])C(=O)OC([H])([H])c1c([H])c([H])c([H])c([H])c1[H])C([H])([H])C([H])(C([H])([H])[H])C([H])([H])[H])C([H])([H])c1c([H])c([H])c([H])c([H])c1[H]


 64 66  0  0  0  0  0  0  0  0999 V2000
    3.6858  -51.6379  -24.1505 C   0  0  0  0  0  0  0  0  0  0  0  0
    4.1017  -52.8137  -24.0675 O   0  0  0  0  0  0  0  0  0  0  0  0
    3.6560  -50.7782  -23.0618 N   0  0  0  0  0  0  0  0  0  0  0  0
    3.2739  -49.7868  -23.2714 H   0  0  0  0  0  0  0  0  0  0  0  0
    3.2181  -51.1938  -25.5012 C   0  0  0  0  0  0  0  0  0  0  0  0
    3.9319  -48.8381  -25.9416 C   0  0  0  0  0  0  0  0  0  0  0  0
    2.9620  -48.5239  -25.1338 O   0  0  0  0  0  0  0  0  0  0  0  0
    4.0886  -50.2342  -26.1408 N   0  0  0  0  0  0  0  0  0  0  0  0
    4.8307  -50.5772  -26.7643 H   0  0  0  0  0  0  0  0  0  0  0  0
    4.6634  -47.7214  -26.4973 C   0  0  0  0  0  0  0  0  0  0  0  0
    5.1617  -48.2139  -27.8426 N   0  0  0  0  0  0  0  0  0  0  0  0
    6.5240  -48.2230  -28.1704 C   0  0  0  0  0  0  0  0  0  0  0  0
    7.4211  -47.8214  -27.3816 O   0  0  0  0  0  0  0  0  0  0  0  0
    4.4629  -48.5502  -28.5310 H   0  0  0  0  0  0  0  0  0  0  0  0
    6.9733  -48.6876  -29.4062 O   0  0  0  0  0  0  0  0  0  0  0  0
    6.4487  -48.1627  -30.6076 C   0  0  0  0  0  0  0  0  0  0  0  0
    7.4923  -47.6121  -31.4718 C   0  0  0  0  0  0  0  0  0  0  0  0
    7.9987  -48.3648  -32.5057 C   0  0  0  0  0  0  0  0  0  0  0  0
    9.0077  -47.8489  -33.3348 C   0  0  0  0  0  0  0  0  0  0  0  0
    9.4901  -46.5921  -33.1153 C   0  0  0  0  0  0  0  0  0  0  0  0
    8.9999  -45.8328  -32.0964 C   0  0  0  0  0  0  0  0  0  0  0  0
    7.9942  -46.3499  -31.2710 C   0  0  0  0  0  0  0  0  0  0  0  0
    3.9787  -46.4655  -26.8824 C   0  0  0  0  0  0  0  0  0  0  0  0
    4.0921  -44.0060  -26.9299 C   0  0  0  0  0  0  0  0  0  0  0  0
    3.9580  -45.2795  -26.0115 C   0  0  0  0  0  0  0  0  0  0  0  0
    2.6844  -45.0742  -25.2104 C   0  0  0  0  0  0  0  0  0  0  0  0
    2.8881  -52.3584  -26.3815 C   0  0  0  0  0  0  0  0  0  0  0  0
    1.4828  -52.4196  -26.8046 C   0  0  0  0  0  0  0  0  0  0  0  0
    0.5250  -51.9003  -25.9530 C   0  0  0  0  0  0  0  0  0  0  0  0
   -0.8329  -51.9212  -26.2843 C   0  0  0  0  0  0  0  0  0  0  0  0
   -1.1798  -52.4806  -27.4960 C   0  0  0  0  0  0  0  0  0  0  0  0
   -0.2179  -52.9961  -28.3385 C   0  0  0  0  0  0  0  0  0  0  0  0
    1.1269  -52.9766  -28.0129 C   0  0  0  0  0  0  0  0  0  0  0  0
    4.0328  -50.9396  -21.6990 C   0  0  0  0  0  0  0  0  0  0  0  0
    2.9660  -51.6356  -20.9152 C   0  0  0  0  0  0  0  0  0  0  0  0
    3.2981  -52.0851  -19.7943 O   0  0  0  0  0  0  0  0  0  0  0  0
    1.6408  -51.8138  -21.3594 N   0  0  0  0  0  0  0  0  0  0  0  0
    1.3618  -51.4464  -22.2906 H   0  0  0  0  0  0  0  0  0  0  0  0
    0.6930  -52.5105  -20.5126 C   0  0  0  0  0  0  0  0  0  0  0  0
   -0.0317  -53.5640  -21.3106 C   0  0  0  0  0  0  0  0  0  0  0  0
   -0.4650  -53.2888  -22.6333 N   0  0  0  0  0  0  0  0  0  0  0  0
   -0.2662  -54.6988  -20.8227 O   0  0  0  0  0  0  0  0  0  0  0  0
   -0.3475  -52.3431  -23.0769 H   0  0  0  0  0  0  0  0  0  0  0  0
   -0.9184  -54.0142  -23.2237 H   0  0  0  0  0  0  0  0  0  0  0  0
   -0.2449  -51.5892  -19.8199 C   0  0  0  0  0  0  0  0  0  0  0  0
   -0.0880  -51.4748  -18.3705 C   0  0  0  0  0  0  0  0  0  0  0  0
   -0.7605  -52.1993  -17.4145 C   0  0  0  0  0  0  0  0  0  0  0  0
   -0.5434  -52.0187  -16.0469 C   0  0  0  0  0  0  0  0  0  0  0  0
    0.3705  -51.0894  -15.6001 C   0  0  0  0  0  0  0  0  0  0  0  0
    0.5842  -50.9122  -14.2334 O   0  0  0  0  0  0  0  0  0  0  0  0
    1.0467  -50.3616  -16.5500 C   0  0  0  0  0  0  0  0  0  0  0  0
    0.8332  -50.5388  -17.8946 C   0  0  0  0  0  0  0  0  0  0  0  0
    1.3073  -51.4849  -13.7916 H   0  0  0  0  0  0  0  0  0  0  0  0
    4.4010  -49.6365  -21.0183 C   0  0  0  0  0  0  0  0  0  0  0  0
    5.8318  -49.2621  -21.2425 C   0  0  0  0  0  0  0  0  0  0  0  0
    6.0835  -48.6979  -22.6051 C   0  0  0  0  0  0  0  0  0  0  0  0
    7.2726  -49.3265  -23.1895 N   0  0  0  0  0  0  0  0  0  0  0  0
    8.2193  -49.0017  -22.8900 H   0  0  0  0  0  0  0  0  0  0  0  0
    7.1997  -50.3514  -24.1397 C   0  0  0  0  0  0  0  0  0  0  0  0
    7.0208  -51.6931  -23.7137 N   0  0  0  0  0  0  0  0  0  0  0  0
    7.2898  -50.1176  -25.3966 N   0  0  0  0  0  0  0  0  0  0  0  0
    7.7838  -52.2193  -23.2513 H   0  0  0  0  0  0  0  0  0  0  0  0
    6.1097  -52.2062  -23.8476 H   0  0  0  0  0  0  0  0  0  0  0  0
    7.4204  -49.1891  -25.8366 H   0  0  0  0  0  0  0  0  0  0  0  0
 24 25  1  0  0  0
 25 26  1  0  0  0
 25 23  1  0  0  0
 23 10  1  0  0  0
 10 11  1  0  0  0
 11 12  1  0  0  0
 12 13  2  0  0  0
 12 15  1  0  0  0
 15 16  1  0  0  0
 16 17  1  0  0  0
 17 18  2  0  0  0
 18 19  1  0  0  0
 19 20  2  0  0  0
 20 21  1  0  0  0
 21 22  2  0  0  0
 10  6  1  0  0  0
  6  7  2  0  0  0
  6  8  1  0  0  0
  8  5  1  0  0  0
  5 27  1  0  0  0
 27 28  1  0  0  0
 28 29  2  0  0  0
 29 30  1  0  0  0
 30 31  2  0  0  0
 31 32  1  0  0  0
 32 33  2  0  0  0
  5  1  1  0  0  0
  1  2  2  0  0  0
  1  3  1  0  0  0
  3 34  1  0  0  0
 34 54  1  0  0  0
 54 55  1  0  0  0
 55 56  1  0  0  0
 56 57  1  0  0  0
 57 59  1  0  0  0
 59 60  1  0  0  0
 59 61  2  0  0  0
 34 35  1  0  0  0
 35 36  2  0  0  0
 35 37  1  0  0  0
 37 39  1  0  0  0
 39 45  1  0  0  0
 45 46  1  0  0  0
 46 47  2  0  0  0
 47 48  1  0  0  0
 48 49  2  0  0  0
 49 50  1  0  0  0
 49 51  1  0  0  0
 51 52  2  0  0  0
 39 40  1  0  0  0
 40 41  1  0  0  0
 40 42  2  0  0  0
 22 17  1  0  0  0
 33 28  1  0  0  0
 52 46  1  0  0  0
 11 14  1  0  0  0
  8  9  1  0  0  0
  3  4  1  0  0  0
 57 58  1  0  0  0
 60 62  1  0  0  0
 60 63  1  0  0  0
 61 64  1  0  0  0
 37 38  1  0  0  0
 50 53  1  0  0  0
 41 43  1  0  0  0
 41 44  1  0  0  0
M  END
> <minimizedAffinity>
-7.02493

> <CNNscore>
0.2098553479

> <CNNaffinity>
6.9927535057

> <CNN_VS>
1.4674667120

> <CNNaffinity_variance>
0.6394468546

$$$$
[H]N=C(N([H])[H])N([H])C([H])([H])C([H])([H])C([H])([H])[C@@]([H])(C(=O)N([H])[C@]([H])(C(=O)N([H])[H])C([H])([H])c1c([H])c([H])c(O[H])c([H])c1[H])N([H])C(=O)[C@@]([H])(N([H])C(=O)[C@@]([H])(N([H])C(=O)OC([H])([H])c1c([H])c([H])c([H])c([H])c1[H])C([H])([H])C([H])(C([H])([H])[H])C([H])([H])[H])C([H])([H])c1c([H])c([H])c([H])c([H])c1[H]


 64 66  0  0  0  0  0  0  0  0999 V2000
    3.0582  -52.1156  -25.2204 C   0  0  0  0  0  0  0  0  0  0  0  0
    2.9085  -53.3454  -25.0545 O   0  0  0  0  0  0  0  0  0  0  0  0
    3.5962  -51.2907  -24.2430 N   0  0  0  0  0  0  0  0  0  0  0  0
    3.6721  -50.2456  -24.5165 H   0  0  0  0  0  0  0  0  0  0  0  0
    2.6266  -51.5678  -26.5448 C   0  0  0  0  0  0  0  0  0  0  0  0
    3.7196  -49.3387  -26.8443 C   0  0  0  0  0  0  0  0  0  0  0  0
    2.8867  -48.9452  -25.9258 O   0  0  0  0  0  0  0  0  0  0  0  0
    3.6053  -50.7133  -27.1770 N   0  0  0  0  0  0  0  0  0  0  0  0
    4.2236  -51.1145  -27.8939 H   0  0  0  0  0  0  0  0  0  0  0  0
    4.5968  -48.3148  -27.3668 C   0  0  0  0  0  0  0  0  0  0  0  0
    3.9419  -47.8641  -28.6585 N   0  0  0  0  0  0  0  0  0  0  0  0
    4.5230  -48.1104  -29.9096 C   0  0  0  0  0  0  0  0  0  0  0  0
    5.6218  -48.7121  -30.0480 O   0  0  0  0  0  0  0  0  0  0  0  0
    3.0382  -47.3590  -28.5997 H   0  0  0  0  0  0  0  0  0  0  0  0
    3.9079  -47.7011  -31.0924 O   0  0  0  0  0  0  0  0  0  0  0  0
    3.0883  -46.5516  -31.1180 C   0  0  0  0  0  0  0  0  0  0  0  0
    3.8313  -45.3520  -31.5030 C   0  0  0  0  0  0  0  0  0  0  0  0
    4.3950  -45.2629  -32.7545 C   0  0  0  0  0  0  0  0  0  0  0  0
    5.1185  -44.1196  -33.1299 C   0  0  0  0  0  0  0  0  0  0  0  0
    5.2641  -43.0885  -32.2489 C   0  0  0  0  0  0  0  0  0  0  0  0
    4.7122  -43.1599  -31.0058 C   0  0  0  0  0  0  0  0  0  0  0  0
    3.9916  -44.3012  -30.6339 C   0  0  0  0  0  0  0  0  0  0  0  0
    4.7779  -47.0226  -26.6658 C   0  0  0  0  0  0  0  0  0  0  0  0
    5.2500  -44.6667  -27.2056 C   0  0  0  0  0  0  0  0  0  0  0  0
    5.8753  -46.0970  -26.9890 C   0  0  0  0  0  0  0  0  0  0  0  0
    6.9290  -45.9238  -25.9094 C   0  0  0  0  0  0  0  0  0  0  0  0
    2.1234  -52.6473  -27.4512 C   0  0  0  0  0  0  0  0  0  0  0  0
    0.6753  -52.6083  -27.6949 C   0  0  0  0  0  0  0  0  0  0  0  0
    0.2243  -52.8831  -28.9728 C   0  0  0  0  0  0  0  0  0  0  0  0
   -1.1384  -52.8660  -29.2840 C   0  0  0  0  0  0  0  0  0  0  0  0
   -2.0163  -52.5643  -28.2643 C   0  0  0  0  0  0  0  0  0  0  0  0
   -1.5573  -52.2914  -26.9931 C   0  0  0  0  0  0  0  0  0  0  0  0
   -0.2089  -52.3077  -26.6826 C   0  0  0  0  0  0  0  0  0  0  0  0
    4.0771  -51.5456  -22.9280 C   0  0  0  0  0  0  0  0  0  0  0  0
    3.1390  -51.0164  -21.8903 C   0  0  0  0  0  0  0  0  0  0  0  0
    2.7680  -49.8277  -22.0252 O   0  0  0  0  0  0  0  0  0  0  0  0
    2.6645  -51.7617  -20.7928 N   0  0  0  0  0  0  0  0  0  0  0  0
    2.9731  -52.7469  -20.6744 H   0  0  0  0  0  0  0  0  0  0  0  0
    1.7599  -51.1396  -19.8466 C   0  0  0  0  0  0  0  0  0  0  0  0
    2.4404  -50.9839  -18.5108 C   0  0  0  0  0  0  0  0  0  0  0  0
    1.7984  -50.2831  -17.4573 N   0  0  0  0  0  0  0  0  0  0  0  0
    3.5829  -51.4671  -18.3057 O   0  0  0  0  0  0  0  0  0  0  0  0
    0.8681  -49.8101  -17.5831 H   0  0  0  0  0  0  0  0  0  0  0  0
    2.2218  -50.2078  -16.5110 H   0  0  0  0  0  0  0  0  0  0  0  0
    0.4631  -51.8565  -19.7340 C   0  0  0  0  0  0  0  0  0  0  0  0
    0.0182  -52.5810  -20.9238 C   0  0  0  0  0  0  0  0  0  0  0  0
   -0.2259  -52.0436  -22.1659 C   0  0  0  0  0  0  0  0  0  0  0  0
   -0.6511  -52.8182  -23.2472 C   0  0  0  0  0  0  0  0  0  0  0  0
   -0.8446  -54.1748  -23.1030 C   0  0  0  0  0  0  0  0  0  0  0  0
   -1.2693  -54.9447  -24.1855 O   0  0  0  0  0  0  0  0  0  0  0  0
   -0.6024  -54.7190  -21.8643 C   0  0  0  0  0  0  0  0  0  0  0  0
   -0.1845  -53.9575  -20.8011 C   0  0  0  0  0  0  0  0  0  0  0  0
   -0.5482  -55.3516  -24.7859 H   0  0  0  0  0  0  0  0  0  0  0  0
    5.4712  -51.0045  -22.6820 C   0  0  0  0  0  0  0  0  0  0  0  0
    5.9158  -50.0669  -23.7593 C   0  0  0  0  0  0  0  0  0  0  0  0
    7.3734  -50.1855  -24.0750 C   0  0  0  0  0  0  0  0  0  0  0  0
    7.5929  -49.9345  -25.5031 N   0  0  0  0  0  0  0  0  0  0  0  0
    6.7759  -49.9497  -26.1541 H   0  0  0  0  0  0  0  0  0  0  0  0
    8.8577  -49.6730  -26.0421 C   0  0  0  0  0  0  0  0  0  0  0  0
    9.2480  -50.2990  -27.2543 N   0  0  0  0  0  0  0  0  0  0  0  0
    9.6858  -48.8779  -25.4722 N   0  0  0  0  0  0  0  0  0  0  0  0
    9.4759  -51.3087  -27.2918 H   0  0  0  0  0  0  0  0  0  0  0  0
    9.3203  -49.7666  -28.1613 H   0  0  0  0  0  0  0  0  0  0  0  0
    9.5255  -48.3603  -24.5897 H   0  0  0  0  0  0  0  0  0  0  0  0
 24 25  1  0  0  0
 25 26  1  0  0  0
 25 23  1  0  0  0
 23 10  1  0  0  0
 10 11  1  0  0  0
 11 12  1  0  0  0
 12 13  2  0  0  0
 12 15  1  0  0  0
 15 16  1  0  0  0
 16 17  1  0  0  0
 17 18  2  0  0  0
 18 19  1  0  0  0
 19 20  2  0  0  0
 20 21  1  0  0  0
 21 22  2  0  0  0
 10  6  1  0  0  0
  6  7  2  0  0  0
  6  8  1  0  0  0
  8  5  1  0  0  0
  5 27  1  0  0  0
 27 28  1  0  0  0
 28 29  2  0  0  0
 29 30  1  0  0  0
 30 31  2  0  0  0
 31 32  1  0  0  0
 32 33  2  0  0  0
  5  1  1  0  0  0
  1  2  2  0  0  0
  1  3  1  0  0  0
  3 34  1  0  0  0
 34 54  1  0  0  0
 54 55  1  0  0  0
 55 56  1  0  0  0
 56 57  1  0  0  0
 57 59  1  0  0  0
 59 60  1  0  0  0
 59 61  2  0  0  0
 34 35  1  0  0  0
 35 36  2  0  0  0
 35 37  1  0  0  0
 37 39  1  0  0  0
 39 45  1  0  0  0
 45 46  1  0  0  0
 46 47  2  0  0  0
 47 48  1  0  0  0
 48 49  2  0  0  0
 49 50  1  0  0  0
 49 51  1  0  0  0
 51 52  2  0  0  0
 39 40  1  0  0  0
 40 41  1  0  0  0
 40 42  2  0  0  0
 22 17  1  0  0  0
 33 28  1  0  0  0
 52 46  1  0  0  0
 11 14  1  0  0  0
  8  9  1  0  0  0
  3  4  1  0  0  0
 57 58  1  0  0  0
 60 62  1  0  0  0
 60 63  1  0  0  0
 61 64  1  0  0  0
 37 38  1  0  0  0
 50 53  1  0  0  0
 41 43  1  0  0  0
 41 44  1  0  0  0
M  END
> <minimizedAffinity>
-8.18889

> <CNNscore>
0.2090620399

> <CNNaffinity>
7.2419714928

> <CNN_VS>
1.5140212774

> <CNNaffinity_variance>
0.3881689012

$$$$
[H]N=C(N([H])[H])N([H])C([H])([H])C([H])([H])C([H])([H])[C@@]([H])(C(=O)N([H])[C@]([H])(C(=O)N([H])[H])C([H])([H])c1c([H])c([H])c(O[H])c([H])c1[H])N([H])C(=O)[C@@]([H])(N([H])C(=O)[C@@]([H])(N([H])C(=O)OC([H])([H])c1c([H])c([H])c([H])c([H])c1[H])C([H])([H])C([H])(C([H])([H])[H])C([H])([H])[H])C([H])([H])c1c([H])c([H])c([H])c([H])c1[H]


 64 66  0  0  0  0  0  0  0  0999 V2000
    3.4600  -51.3213  -24.4041 C   0  0  0  0  0  0  0  0  0  0  0  0
    4.2196  -52.2958  -24.2150 O   0  0  0  0  0  0  0  0  0  0  0  0
    3.1780  -50.3916  -23.4134 N   0  0  0  0  0  0  0  0  0  0  0  0
    2.5061  -49.5958  -23.7100 H   0  0  0  0  0  0  0  0  0  0  0  0
    2.8633  -51.2013  -25.7715 C   0  0  0  0  0  0  0  0  0  0  0  0
    3.8021  -49.0507  -26.6356 C   0  0  0  0  0  0  0  0  0  0  0  0
    3.1376  -48.5105  -25.6565 O   0  0  0  0  0  0  0  0  0  0  0  0
    3.6785  -50.4624  -26.7080 N   0  0  0  0  0  0  0  0  0  0  0  0
    4.1693  -50.9768  -27.4508 H   0  0  0  0  0  0  0  0  0  0  0  0
    4.5316  -48.1267  -27.4752 C   0  0  0  0  0  0  0  0  0  0  0  0
    4.4306  -48.7083  -28.8724 N   0  0  0  0  0  0  0  0  0  0  0  0
    5.5231  -48.7233  -29.7498 C   0  0  0  0  0  0  0  0  0  0  0  0
    6.6526  -48.2543  -29.4455 O   0  0  0  0  0  0  0  0  0  0  0  0
    3.5204  -49.1023  -29.1747 H   0  0  0  0  0  0  0  0  0  0  0  0
    5.4232  -49.2698  -31.0289 O   0  0  0  0  0  0  0  0  0  0  0  0
    5.8518  -48.5407  -32.1596 C   0  0  0  0  0  0  0  0  0  0  0  0
    4.8164  -47.6361  -32.6586 C   0  0  0  0  0  0  0  0  0  0  0  0
    3.4895  -47.9828  -32.5526 C   0  0  0  0  0  0  0  0  0  0  0  0
    2.4886  -47.1257  -33.0376 C   0  0  0  0  0  0  0  0  0  0  0  0
    2.8324  -45.9402  -33.6178 C   0  0  0  0  0  0  0  0  0  0  0  0
    4.1414  -45.5811  -33.7307 C   0  0  0  0  0  0  0  0  0  0  0  0
    5.1373  -46.4376  -33.2467 C   0  0  0  0  0  0  0  0  0  0  0  0
    4.0505  -46.7438  -27.6999 C   0  0  0  0  0  0  0  0  0  0  0  0
    1.7935  -45.7629  -27.6122 C   0  0  0  0  0  0  0  0  0  0  0  0
    2.8758  -46.4431  -28.5337 C   0  0  0  0  0  0  0  0  0  0  0  0
    3.1115  -45.4699  -29.6753 C   0  0  0  0  0  0  0  0  0  0  0  0
    2.4266  -52.5310  -26.3019 C   0  0  0  0  0  0  0  0  0  0  0  0
    1.0541  -52.5541  -26.8248 C   0  0  0  0  0  0  0  0  0  0  0  0
    0.0293  -52.1785  -25.9758 C   0  0  0  0  0  0  0  0  0  0  0  0
   -1.3030  -52.1742  -26.3990 C   0  0  0  0  0  0  0  0  0  0  0  0
   -1.5550  -52.5596  -27.6989 C   0  0  0  0  0  0  0  0  0  0  0  0
   -0.5266  -52.9327  -28.5381 C   0  0  0  0  0  0  0  0  0  0  0  0
    0.7929  -52.9378  -28.1215 C   0  0  0  0  0  0  0  0  0  0  0  0
    3.6011  -50.2708  -22.0600 C   0  0  0  0  0  0  0  0  0  0  0  0
    2.8089  -51.1625  -21.1576 C   0  0  0  0  0  0  0  0  0  0  0  0
    3.4587  -51.9864  -20.4738 O   0  0  0  0  0  0  0  0  0  0  0  0
    1.4052  -51.1310  -21.0405 N   0  0  0  0  0  0  0  0  0  0  0  0
    0.8616  -50.4520  -21.6092 H   0  0  0  0  0  0  0  0  0  0  0  0
    0.7449  -52.0491  -20.1339 C   0  0  0  0  0  0  0  0  0  0  0  0
   -0.3634  -52.7742  -20.8534 C   0  0  0  0  0  0  0  0  0  0  0  0
   -1.2535  -53.6144  -20.1360 N   0  0  0  0  0  0  0  0  0  0  0  0
   -0.5189  -52.6508  -22.0950 O   0  0  0  0  0  0  0  0  0  0  0  0
   -1.1425  -53.8013  -19.1075 H   0  0  0  0  0  0  0  0  0  0  0  0
   -2.0580  -54.0827  -20.5984 H   0  0  0  0  0  0  0  0  0  0  0  0
    0.2671  -51.3873  -18.8921 C   0  0  0  0  0  0  0  0  0  0  0  0
    1.2457  -50.5698  -18.1764 C   0  0  0  0  0  0  0  0  0  0  0  0
    1.3319  -49.1974  -18.1894 C   0  0  0  0  0  0  0  0  0  0  0  0
    2.3064  -48.5009  -17.4713 C   0  0  0  0  0  0  0  0  0  0  0  0
    3.2332  -49.1792  -16.7101 C   0  0  0  0  0  0  0  0  0  0  0  0
    4.2046  -48.4797  -15.9945 O   0  0  0  0  0  0  0  0  0  0  0  0
    3.1530  -50.5512  -16.6921 C   0  0  0  0  0  0  0  0  0  0  0  0
    2.1952  -51.2361  -17.3983 C   0  0  0  0  0  0  0  0  0  0  0  0
    3.9749  -48.2005  -15.0378 H   0  0  0  0  0  0  0  0  0  0  0  0
    3.5578  -48.8476  -21.5409 C   0  0  0  0  0  0  0  0  0  0  0  0
    4.9203  -48.2395  -21.4338 C   0  0  0  0  0  0  0  0  0  0  0  0
    5.6975  -48.3138  -22.7100 C   0  0  0  0  0  0  0  0  0  0  0  0
    6.9572  -49.0291  -22.4819 N   0  0  0  0  0  0  0  0  0  0  0  0
    7.7913  -48.4969  -22.1465 H   0  0  0  0  0  0  0  0  0  0  0  0
    7.0978  -50.4052  -22.6943 C   0  0  0  0  0  0  0  0  0  0  0  0
    6.3695  -51.3186  -21.8887 N   0  0  0  0  0  0  0  0  0  0  0  0
    7.8706  -50.8751  -23.6024 N   0  0  0  0  0  0  0  0  0  0  0  0
    6.6165  -51.4789  -20.8956 H   0  0  0  0  0  0  0  0  0  0  0  0
    5.5513  -51.8671  -22.2642 H   0  0  0  0  0  0  0  0  0  0  0  0
    8.4535  -50.3203  -24.2543 H   0  0  0  0  0  0  0  0  0  0  0  0
 24 25  1  0  0  0
 25 26  1  0  0  0
 25 23  1  0  0  0
 23 10  1  0  0  0
 10 11  1  0  0  0
 11 12  1  0  0  0
 12 13  2  0  0  0
 12 15  1  0  0  0
 15 16  1  0  0  0
 16 17  1  0  0  0
 17 18  2  0  0  0
 18 19  1  0  0  0
 19 20  2  0  0  0
 20 21  1  0  0  0
 21 22  2  0  0  0
 10  6  1  0  0  0
  6  7  2  0  0  0
  6  8  1  0  0  0
  8  5  1  0  0  0
  5 27  1  0  0  0
 27 28  1  0  0  0
 28 29  2  0  0  0
 29 30  1  0  0  0
 30 31  2  0  0  0
 31 32  1  0  0  0
 32 33  2  0  0  0
  5  1  1  0  0  0
  1  2  2  0  0  0
  1  3  1  0  0  0
  3 34  1  0  0  0
 34 54  1  0  0  0
 54 55  1  0  0  0
 55 56  1  0  0  0
 56 57  1  0  0  0
 57 59  1  0  0  0
 59 60  1  0  0  0
 59 61  2  0  0  0
 34 35  1  0  0  0
 35 36  2  0  0  0
 35 37  1  0  0  0
 37 39  1  0  0  0
 39 45  1  0  0  0
 45 46  1  0  0  0
 46 47  2  0  0  0
 47 48  1  0  0  0
 48 49  2  0  0  0
 49 50  1  0  0  0
 49 51  1  0  0  0
 51 52  2  0  0  0
 39 40  1  0  0  0
 40 41  1  0  0  0
 40 42  2  0  0  0
 22 17  1  0  0  0
 33 28  1  0  0  0
 52 46  1  0  0  0
 11 14  1  0  0  0
  8  9  1  0  0  0
  3  4  1  0  0  0
 57 58  1  0  0  0
 60 62  1  0  0  0
 60 63  1  0  0  0
 61 64  1  0  0  0
 37 38  1  0  0  0
 50 53  1  0  0  0
 41 43  1  0  0  0
 41 44  1  0  0  0
M  END
> <minimizedAffinity>
-7.39111

> <CNNscore>
0.1569251716

> <CNNaffinity>
6.9095563889

> <CNN_VS>
1.0842833519

> <CNNaffinity_variance>
0.6336127520

$$$$
[H]N=C(N([H])[H])N([H])C([H])([H])C([H])([H])C([H])([H])[C@@]([H])(C(=O)N([H])[C@]([H])(C(=O)N([H])[H])C([H])([H])c1c([H])c([H])c(O[H])c([H])c1[H])N([H])C(=O)[C@@]([H])(N([H])C(=O)[C@@]([H])(N([H])C(=O)OC([H])([H])c1c([H])c([H])c([H])c([H])c1[H])C([H])([H])C([H])(C([H])([H])[H])C([H])([H])[H])C([H])([H])c1c([H])c([H])c([H])c([H])c1[H]


 64 66  0  0  0  0  0  0  0  0999 V2000
    2.4286  -50.2104  -20.8238 C   0  0  0  0  0  0  0  0  0  0  0  0
    2.4569  -48.9640  -20.9138 O   0  0  0  0  0  0  0  0  0  0  0  0
    3.2560  -51.0319  -21.5760 N   0  0  0  0  0  0  0  0  0  0  0  0
    3.1307  -52.0930  -21.3998 H   0  0  0  0  0  0  0  0  0  0  0  0
    1.4478  -50.7827  -19.8487 C   0  0  0  0  0  0  0  0  0  0  0  0
    2.4704  -50.4710  -17.5881 C   0  0  0  0  0  0  0  0  0  0  0  0
    3.3403  -51.3474  -17.9970 O   0  0  0  0  0  0  0  0  0  0  0  0
    1.4744  -50.1544  -18.5479 N   0  0  0  0  0  0  0  0  0  0  0  0
    0.7434  -49.4705  -18.3131 H   0  0  0  0  0  0  0  0  0  0  0  0
    2.6626  -49.9884  -16.2387 C   0  0  0  0  0  0  0  0  0  0  0  0
    1.3592  -50.2956  -15.5266 N   0  0  0  0  0  0  0  0  0  0  0  0
    0.5427  -49.2831  -15.0052 C   0  0  0  0  0  0  0  0  0  0  0  0
    0.8336  -48.0594  -15.0850 O   0  0  0  0  0  0  0  0  0  0  0  0
    1.0762  -51.2884  -15.4288 H   0  0  0  0  0  0  0  0  0  0  0  0
   -0.6593  -49.5752  -14.3613 O   0  0  0  0  0  0  0  0  0  0  0  0
   -1.8956  -49.2452  -14.9585 C   0  0  0  0  0  0  0  0  0  0  0  0
   -2.6088  -50.4275  -15.4411 C   0  0  0  0  0  0  0  0  0  0  0  0
   -3.9670  -50.5372  -15.2529 C   0  0  0  0  0  0  0  0  0  0  0  0
   -4.6590  -51.6726  -15.7038 C   0  0  0  0  0  0  0  0  0  0  0  0
   -3.9816  -52.6750  -16.3337 C   0  0  0  0  0  0  0  0  0  0  0  0
   -2.6368  -52.5826  -16.5287 C   0  0  0  0  0  0  0  0  0  0  0  0
   -1.9491  -51.4496  -16.0779 C   0  0  0  0  0  0  0  0  0  0  0  0
    3.6473  -50.6165  -15.3276 C   0  0  0  0  0  0  0  0  0  0  0  0
    4.2349  -52.8081  -14.3706 C   0  0  0  0  0  0  0  0  0  0  0  0
    3.2553  -51.5767  -14.2837 C   0  0  0  0  0  0  0  0  0  0  0  0
    3.3572  -51.0727  -12.8549 C   0  0  0  0  0  0  0  0  0  0  0  0
    0.0711  -50.8589  -20.4309 C   0  0  0  0  0  0  0  0  0  0  0  0
   -0.2891  -52.1791  -20.9650 C   0  0  0  0  0  0  0  0  0  0  0  0
   -1.3267  -52.8636  -20.3593 C   0  0  0  0  0  0  0  0  0  0  0  0
   -1.7287  -54.1246  -20.8093 C   0  0  0  0  0  0  0  0  0  0  0  0
   -1.0486  -54.6593  -21.8832 C   0  0  0  0  0  0  0  0  0  0  0  0
   -0.0151  -53.9694  -22.4806 C   0  0  0  0  0  0  0  0  0  0  0  0
    0.3847  -52.7212  -22.0370 C   0  0  0  0  0  0  0  0  0  0  0  0
    4.2548  -50.7563  -22.5515 C   0  0  0  0  0  0  0  0  0  0  0  0
    4.1050  -51.6362  -23.7516 C   0  0  0  0  0  0  0  0  0  0  0  0
    5.1221  -52.2742  -24.1082 O   0  0  0  0  0  0  0  0  0  0  0  0
    2.9129  -51.7800  -24.4887 N   0  0  0  0  0  0  0  0  0  0  0  0
    2.0677  -51.2492  -24.1991 H   0  0  0  0  0  0  0  0  0  0  0  0
    2.8884  -52.6606  -25.6396 C   0  0  0  0  0  0  0  0  0  0  0  0
    2.8780  -51.8478  -26.9088 C   0  0  0  0  0  0  0  0  0  0  0  0
    3.2428  -52.4434  -28.1438 N   0  0  0  0  0  0  0  0  0  0  0  0
    2.5497  -50.6341  -26.8980 O   0  0  0  0  0  0  0  0  0  0  0  0
    3.5787  -53.4372  -28.2099 H   0  0  0  0  0  0  0  0  0  0  0  0
    3.1924  -51.9205  -29.0407 H   0  0  0  0  0  0  0  0  0  0  0  0
    1.7704  -53.6385  -25.5920 C   0  0  0  0  0  0  0  0  0  0  0  0
    0.5234  -53.2282  -26.2362 C   0  0  0  0  0  0  0  0  0  0  0  0
    0.1227  -53.5362  -27.5151 C   0  0  0  0  0  0  0  0  0  0  0  0
   -1.0914  -53.0961  -28.0465 C   0  0  0  0  0  0  0  0  0  0  0  0
   -1.9461  -52.3223  -27.2920 C   0  0  0  0  0  0  0  0  0  0  0  0
   -3.1576  -51.8849  -27.8266 O   0  0  0  0  0  0  0  0  0  0  0  0
   -1.5523  -52.0106  -26.0126 C   0  0  0  0  0  0  0  0  0  0  0  0
   -0.3586  -52.4430  -25.4901 C   0  0  0  0  0  0  0  0  0  0  0  0
   -3.9736  -52.4884  -27.7001 H   0  0  0  0  0  0  0  0  0  0  0  0
    5.6673  -50.8611  -22.0125 C   0  0  0  0  0  0  0  0  0  0  0  0
    6.3482  -49.5312  -21.9387 C   0  0  0  0  0  0  0  0  0  0  0  0
    5.8284  -48.5500  -22.9415 C   0  0  0  0  0  0  0  0  0  0  0  0
    6.7476  -48.4729  -24.0815 N   0  0  0  0  0  0  0  0  0  0  0  0
    7.5505  -47.8055  -24.0437 H   0  0  0  0  0  0  0  0  0  0  0  0
    6.5996  -49.2585  -25.2302 C   0  0  0  0  0  0  0  0  0  0  0  0
    7.7331  -49.9003  -25.7933 N   0  0  0  0  0  0  0  0  0  0  0  0
    5.4622  -49.4207  -25.7981 N   0  0  0  0  0  0  0  0  0  0  0  0
    8.4647  -49.3638  -26.2931 H   0  0  0  0  0  0  0  0  0  0  0  0
    7.8775  -50.9423  -25.7257 H   0  0  0  0  0  0  0  0  0  0  0  0
    4.5625  -49.0105  -25.4899 H   0  0  0  0  0  0  0  0  0  0  0  0
 24 25  1  0  0  0
 25 26  1  0  0  0
 25 23  1  0  0  0
 23 10  1  0  0  0
 10 11  1  0  0  0
 11 12  1  0  0  0
 12 13  2  0  0  0
 12 15  1  0  0  0
 15 16  1  0  0  0
 16 17  1  0  0  0
 17 18  2  0  0  0
 18 19  1  0  0  0
 19 20  2  0  0  0
 20 21  1  0  0  0
 21 22  2  0  0  0
 10  6  1  0  0  0
  6  7  2  0  0  0
  6  8  1  0  0  0
  8  5  1  0  0  0
  5 27  1  0  0  0
 27 28  1  0  0  0
 28 29  2  0  0  0
 29 30  1  0  0  0
 30 31  2  0  0  0
 31 32  1  0  0  0
 32 33  2  0  0  0
  5  1  1  0  0  0
  1  2  2  0  0  0
  1  3  1  0  0  0
  3 34  1  0  0  0
 34 54  1  0  0  0
 54 55  1  0  0  0
 55 56  1  0  0  0
 56 57  1  0  0  0
 57 59  1  0  0  0
 59 60  1  0  0  0
 59 61  2  0  0  0
 34 35  1  0  0  0
 35 36  2  0  0  0
 35 37  1  0  0  0
 37 39  1  0  0  0
 39 45  1  0  0  0
 45 46  1  0  0  0
 46 47  2  0  0  0
 47 48  1  0  0  0
 48 49  2  0  0  0
 49 50  1  0  0  0
 49 51  1  0  0  0
 51 52  2  0  0  0
 39 40  1  0  0  0
 40 41  1  0  0  0
 40 42  2  0  0  0
 22 17  1  0  0  0
 33 28  1  0  0  0
 52 46  1  0  0  0
 11 14  1  0  0  0
  8  9  1  0  0  0
  3  4  1  0  0  0
 57 58  1  0  0  0
 60 62  1  0  0  0
 60 63  1  0  0  0
 61 64  1  0  0  0
 37 38  1  0  0  0
 50 53  1  0  0  0
 41 43  1  0  0  0
 41 44  1  0  0  0
M  END
> <minimizedAffinity>
-8.09477

> <CNNscore>
0.1361324936

> <CNNaffinity>
6.8833374977

> <CNN_VS>
0.9370458722

> <CNNaffinity_variance>
1.1972734928

$$$$
[H]N=C(N([H])[H])N([H])C([H])([H])C([H])([H])C([H])([H])[C@@]([H])(C(=O)N([H])[C@]([H])(C(=O)N([H])[H])C([H])([H])c1c([H])c([H])c(O[H])c([H])c1[H])N([H])C(=O)[C@@]([H])(N([H])C(=O)[C@@]([H])(N([H])C(=O)OC([H])([H])c1c([H])c([H])c([H])c([H])c1[H])C([H])([H])C([H])(C([H])([H])[H])C([H])([H])[H])C([H])([H])c1c([H])c([H])c([H])c([H])c1[H]


 64 66  0  0  0  0  0  0  0  0999 V2000
    3.4766  -48.9397  -24.2004 C   0  0  0  0  0  0  0  0  0  0  0  0
    2.9398  -48.0190  -23.5473 O   0  0  0  0  0  0  0  0  0  0  0  0
    4.7454  -48.8235  -24.7497 N   0  0  0  0  0  0  0  0  0  0  0  0
    5.0923  -49.6955  -25.2900 H   0  0  0  0  0  0  0  0  0  0  0  0
    2.6750  -50.1935  -24.3608 C   0  0  0  0  0  0  0  0  0  0  0  0
    1.7400  -51.6296  -22.5397 C   0  0  0  0  0  0  0  0  0  0  0  0
    2.6758  -52.4639  -22.8863 O   0  0  0  0  0  0  0  0  0  0  0  0
    1.7281  -50.4285  -23.2951 N   0  0  0  0  0  0  0  0  0  0  0  0
    1.0225  -49.7088  -23.0918 H   0  0  0  0  0  0  0  0  0  0  0  0
    0.8793  -52.0732  -21.4658 C   0  0  0  0  0  0  0  0  0  0  0  0
    1.1195  -51.0842  -20.3412 N   0  0  0  0  0  0  0  0  0  0  0  0
    2.1988  -51.2147  -19.4572 C   0  0  0  0  0  0  0  0  0  0  0  0
    3.0336  -52.1562  -19.5295 O   0  0  0  0  0  0  0  0  0  0  0  0
    0.4574  -50.2933  -20.2343 H   0  0  0  0  0  0  0  0  0  0  0  0
    2.4172  -50.2942  -18.4326 O   0  0  0  0  0  0  0  0  0  0  0  0
    3.5079  -50.4452  -17.5485 C   0  0  0  0  0  0  0  0  0  0  0  0
    3.0975  -50.9832  -16.2518 C   0  0  0  0  0  0  0  0  0  0  0  0
    1.8005  -50.8275  -15.8208 C   0  0  0  0  0  0  0  0  0  0  0  0
    1.3993  -51.3318  -14.5732 C   0  0  0  0  0  0  0  0  0  0  0  0
    2.3005  -51.9814  -13.7818 C   0  0  0  0  0  0  0  0  0  0  0  0
    3.5886  -52.1448  -14.1932 C   0  0  0  0  0  0  0  0  0  0  0  0
    3.9860  -51.6408  -15.4374 C   0  0  0  0  0  0  0  0  0  0  0  0
   -0.5960  -52.0222  -21.5884 C   0  0  0  0  0  0  0  0  0  0  0  0
   -0.8029  -54.3846  -22.2523 C   0  0  0  0  0  0  0  0  0  0  0  0
   -1.4435  -53.2128  -21.4157 C   0  0  0  0  0  0  0  0  0  0  0  0
   -1.5575  -53.7384  -19.9956 C   0  0  0  0  0  0  0  0  0  0  0  0
    2.0559  -50.2827  -25.7205 C   0  0  0  0  0  0  0  0  0  0  0  0
    1.2340  -51.4812  -25.9350 C   0  0  0  0  0  0  0  0  0  0  0  0
    1.8807  -52.6689  -26.2237 C   0  0  0  0  0  0  0  0  0  0  0  0
    1.1687  -53.8522  -26.4406 C   0  0  0  0  0  0  0  0  0  0  0  0
   -0.2061  -53.7880  -26.3548 C   0  0  0  0  0  0  0  0  0  0  0  0
   -0.8422  -52.5991  -26.0667 C   0  0  0  0  0  0  0  0  0  0  0  0
   -0.1397  -51.4265  -25.8516 C   0  0  0  0  0  0  0  0  0  0  0  0
    5.7011  -47.7689  -24.7471 C   0  0  0  0  0  0  0  0  0  0  0  0
    6.3187  -47.5869  -26.0971 C   0  0  0  0  0  0  0  0  0  0  0  0
    7.1000  -46.6169  -26.2289 O   0  0  0  0  0  0  0  0  0  0  0  0
    6.0722  -48.4233  -27.2038 N   0  0  0  0  0  0  0  0  0  0  0  0
    5.4213  -49.2267  -27.1003 H   0  0  0  0  0  0  0  0  0  0  0  0
    6.7263  -48.1451  -28.4669 C   0  0  0  0  0  0  0  0  0  0  0  0
    8.2087  -48.3872  -28.3426 C   0  0  0  0  0  0  0  0  0  0  0  0
    8.6921  -49.5910  -27.7678 N   0  0  0  0  0  0  0  0  0  0  0  0
    9.0403  -47.5327  -28.7415 O   0  0  0  0  0  0  0  0  0  0  0  0
    8.0488  -50.3191  -27.3666 H   0  0  0  0  0  0  0  0  0  0  0  0
    9.7078  -49.8062  -27.7195 H   0  0  0  0  0  0  0  0  0  0  0  0
    6.4227  -46.7856  -28.9848 C   0  0  0  0  0  0  0  0  0  0  0  0
    5.0167  -46.4993  -29.2668 C   0  0  0  0  0  0  0  0  0  0  0  0
    4.1031  -45.9493  -28.3985 C   0  0  0  0  0  0  0  0  0  0  0  0
    2.7749  -45.7126  -28.7591 C   0  0  0  0  0  0  0  0  0  0  0  0
    2.3257  -46.0288  -30.0227 C   0  0  0  0  0  0  0  0  0  0  0  0
    0.9985  -45.7908  -30.3786 O   0  0  0  0  0  0  0  0  0  0  0  0
    3.2334  -46.5788  -30.8961 C   0  0  0  0  0  0  0  0  0  0  0  0
    4.5392  -46.8118  -30.5418 C   0  0  0  0  0  0  0  0  0  0  0  0
    0.7762  -44.8792  -30.7857 H   0  0  0  0  0  0  0  0  0  0  0  0
    6.7882  -47.9449  -23.7059 C   0  0  0  0  0  0  0  0  0  0  0  0
    7.7612  -49.0193  -24.0755 C   0  0  0  0  0  0  0  0  0  0  0  0
    7.7749  -50.1572  -23.1043 C   0  0  0  0  0  0  0  0  0  0  0  0
    7.3330  -51.3850  -23.7736 N   0  0  0  0  0  0  0  0  0  0  0  0
    8.0227  -51.9374  -24.3310 H   0  0  0  0  0  0  0  0  0  0  0  0
    6.0177  -51.8575  -23.7013 C   0  0  0  0  0  0  0  0  0  0  0  0
    5.3848  -51.9832  -22.4375 N   0  0  0  0  0  0  0  0  0  0  0  0
    5.3568  -52.1844  -24.7496 N   0  0  0  0  0  0  0  0  0  0  0  0
    5.6551  -52.7273  -21.7697 H   0  0  0  0  0  0  0  0  0  0  0  0
    4.6194  -51.3281  -22.1271 H   0  0  0  0  0  0  0  0  0  0  0  0
    5.6999  -52.1399  -25.7257 H   0  0  0  0  0  0  0  0  0  0  0  0
 24 25  1  0  0  0
 25 26  1  0  0  0
 25 23  1  0  0  0
 23 10  1  0  0  0
 10 11  1  0  0  0
 11 12  1  0  0  0
 12 13  2  0  0  0
 12 15  1  0  0  0
 15 16  1  0  0  0
 16 17  1  0  0  0
 17 18  2  0  0  0
 18 19  1  0  0  0
 19 20  2  0  0  0
 20 21  1  0  0  0
 21 22  2  0  0  0
 10  6  1  0  0  0
  6  7  2  0  0  0
  6  8  1  0  0  0
  8  5  1  0  0  0
  5 27  1  0  0  0
 27 28  1  0  0  0
 28 29  2  0  0  0
 29 30  1  0  0  0
 30 31  2  0  0  0
 31 32  1  0  0  0
 32 33  2  0  0  0
  5  1  1  0  0  0
  1  2  2  0  0  0
  1  3  1  0  0  0
  3 34  1  0  0  0
 34 54  1  0  0  0
 54 55  1  0  0  0
 55 56  1  0  0  0
 56 57  1  0  0  0
 57 59  1  0  0  0
 59 60  1  0  0  0
 59 61  2  0  0  0
 34 35  1  0  0  0
 35 36  2  0  0  0
 35 37  1  0  0  0
 37 39  1  0  0  0
 39 45  1  0  0  0
 45 46  1  0  0  0
 46 47  2  0  0  0
 47 48  1  0  0  0
 48 49  2  0  0  0
 49 50  1  0  0  0
 49 51  1  0  0  0
 51 52  2  0  0  0
 39 40  1  0  0  0
 40 41  1  0  0  0
 40 42  2  0  0  0
 22 17  1  0  0  0
 33 28  1  0  0  0
 52 46  1  0  0  0
 11 14  1  0  0  0
  8  9  1  0  0  0
  3  4  1  0  0  0
 57 58  1  0  0  0
 60 62  1  0  0  0
 60 63  1  0  0  0
 61 64  1  0  0  0
 37 38  1  0  0  0
 50 53  1  0  0  0
 41 43  1  0  0  0
 41 44  1  0  0  0
M  END
> <minimizedAffinity>
-7.53297

> <CNNscore>
0.1121709645

> <CNNaffinity>
6.3782382011

> <CNN_VS>
0.7154531479

> <CNNaffinity_variance>
1.4828566313

$$$$
[H]N=C(N([H])[H])N([H])C([H])([H])C([H])([H])C([H])([H])[C@@]([H])(C(=O)N([H])[C@]([H])(C(=O)N([H])[H])C([H])([H])c1c([H])c([H])c(O[H])c([H])c1[H])N([H])C(=O)[C@@]([H])(N([H])C(=O)[C@@]([H])(N([H])C(=O)OC([H])([H])c1c([H])c([H])c([H])c([H])c1[H])C([H])([H])C([H])(C([H])([H])[H])C([H])([H])[H])C([H])([H])c1c([H])c([H])c([H])c([H])c1[H]


 64 66  0  0  0  0  0  0  0  0999 V2000
    3.7046  -51.4718  -25.2129 C   0  0  0  0  0  0  0  0  0  0  0  0
    4.1242  -52.6421  -25.0838 O   0  0  0  0  0  0  0  0  0  0  0  0
    3.8775  -50.5047  -24.2331 N   0  0  0  0  0  0  0  0  0  0  0  0
    3.4674  -49.5315  -24.4726 H   0  0  0  0  0  0  0  0  0  0  0  0
    2.9998  -51.1578  -26.4954 C   0  0  0  0  0  0  0  0  0  0  0  0
    3.7395  -48.8818  -27.2203 C   0  0  0  0  0  0  0  0  0  0  0  0
    3.0300  -48.4656  -26.2127 O   0  0  0  0  0  0  0  0  0  0  0  0
    3.7439  -50.2916  -27.3806 N   0  0  0  0  0  0  0  0  0  0  0  0
    4.2783  -50.7125  -28.1516 H   0  0  0  0  0  0  0  0  0  0  0  0
    4.3816  -47.8453  -27.9978 C   0  0  0  0  0  0  0  0  0  0  0  0
    5.5758  -48.5247  -28.6402 N   0  0  0  0  0  0  0  0  0  0  0  0
    6.8904  -48.1155  -28.3795 C   0  0  0  0  0  0  0  0  0  0  0  0
    7.1699  -47.1606  -27.6060 O   0  0  0  0  0  0  0  0  0  0  0  0
    5.4001  -49.3134  -29.2902 H   0  0  0  0  0  0  0  0  0  0  0  0
    7.9825  -48.7534  -28.9671 O   0  0  0  0  0  0  0  0  0  0  0  0
    8.8270  -48.0596  -29.8612 C   0  0  0  0  0  0  0  0  0  0  0  0
    8.1525  -47.7330  -31.1172 C   0  0  0  0  0  0  0  0  0  0  0  0
    7.6204  -48.7355  -31.8943 C   0  0  0  0  0  0  0  0  0  0  0  0
    6.9797  -48.4329  -33.1065 C   0  0  0  0  0  0  0  0  0  0  0  0
    6.8827  -47.1361  -33.5181 C   0  0  0  0  0  0  0  0  0  0  0  0
    7.4037  -46.1310  -32.7608 C   0  0  0  0  0  0  0  0  0  0  0  0
    8.0423  -46.4355  -31.5528 C   0  0  0  0  0  0  0  0  0  0  0  0
    3.7190  -47.2438  -29.1781 C   0  0  0  0  0  0  0  0  0  0  0  0
    3.7103  -47.2735  -31.6405 C   0  0  0  0  0  0  0  0  0  0  0  0
    4.4722  -46.7777  -30.3532 C   0  0  0  0  0  0  0  0  0  0  0  0
    4.5912  -45.2712  -30.5028 C   0  0  0  0  0  0  0  0  0  0  0  0
    2.5070  -52.3983  -27.1725 C   0  0  0  0  0  0  0  0  0  0  0  0
    1.0542  -52.4358  -27.3865 C   0  0  0  0  0  0  0  0  0  0  0  0
    0.2340  -52.0409  -26.3456 C   0  0  0  0  0  0  0  0  0  0  0  0
   -1.1582  -52.0485  -26.4717 C   0  0  0  0  0  0  0  0  0  0  0  0
   -1.6818  -52.4657  -27.6772 C   0  0  0  0  0  0  0  0  0  0  0  0
   -0.8561  -52.8579  -28.7094 C   0  0  0  0  0  0  0  0  0  0  0  0
    0.5222  -52.8512  -28.5871 C   0  0  0  0  0  0  0  0  0  0  0  0
    4.4963  -50.5343  -22.9518 C   0  0  0  0  0  0  0  0  0  0  0  0
    3.5478  -50.1094  -21.8762 C   0  0  0  0  0  0  0  0  0  0  0  0
    3.6498  -48.9274  -21.4749 O   0  0  0  0  0  0  0  0  0  0  0  0
    2.5724  -50.9468  -21.2996 N   0  0  0  0  0  0  0  0  0  0  0  0
    2.4870  -51.9296  -21.6264 H   0  0  0  0  0  0  0  0  0  0  0  0
    1.7101  -50.4244  -20.2584 C   0  0  0  0  0  0  0  0  0  0  0  0
    2.0587  -51.0582  -18.9361 C   0  0  0  0  0  0  0  0  0  0  0  0
    1.1374  -51.0185  -17.8577 N   0  0  0  0  0  0  0  0  0  0  0  0
    3.1655  -51.6293  -18.7633 O   0  0  0  0  0  0  0  0  0  0  0  0
    0.2199  -50.5096  -17.9221 H   0  0  0  0  0  0  0  0  0  0  0  0
    1.3306  -51.4939  -16.9539 H   0  0  0  0  0  0  0  0  0  0  0  0
    0.2666  -50.5642  -20.5829 C   0  0  0  0  0  0  0  0  0  0  0  0
   -0.1376  -51.8229  -21.2079 C   0  0  0  0  0  0  0  0  0  0  0  0
   -0.0134  -52.1540  -22.5368 C   0  0  0  0  0  0  0  0  0  0  0  0
   -0.4310  -53.3862  -23.0443 C   0  0  0  0  0  0  0  0  0  0  0  0
   -0.9931  -54.3309  -22.2137 C   0  0  0  0  0  0  0  0  0  0  0  0
   -1.4088  -55.5602  -22.7247 O   0  0  0  0  0  0  0  0  0  0  0  0
   -1.1202  -54.0071  -20.8840 C   0  0  0  0  0  0  0  0  0  0  0  0
   -0.7100  -52.7956  -20.3849 C   0  0  0  0  0  0  0  0  0  0  0  0
   -0.7255  -56.3212  -22.7354 H   0  0  0  0  0  0  0  0  0  0  0  0
    5.7621  -49.7043  -22.8758 C   0  0  0  0  0  0  0  0  0  0  0  0
    6.9369  -50.5005  -22.4033 C   0  0  0  0  0  0  0  0  0  0  0  0
    7.4663  -50.0372  -21.0829 C   0  0  0  0  0  0  0  0  0  0  0  0
    6.6825  -48.8918  -20.6093 N   0  0  0  0  0  0  0  0  0  0  0  0
    6.3698  -48.1699  -21.2967 H   0  0  0  0  0  0  0  0  0  0  0  0
    6.3297  -48.7168  -19.2664 C   0  0  0  0  0  0  0  0  0  0  0  0
    7.1795  -47.9723  -18.4079 N   0  0  0  0  0  0  0  0  0  0  0  0
    5.2524  -49.2114  -18.7791 N   0  0  0  0  0  0  0  0  0  0  0  0
    8.0885  -48.3509  -18.0866 H   0  0  0  0  0  0  0  0  0  0  0  0
    6.9236  -47.0089  -18.0648 H   0  0  0  0  0  0  0  0  0  0  0  0
    4.5501  -49.7710  -19.2951 H   0  0  0  0  0  0  0  0  0  0  0  0
 24 25  1  0  0  0
 25 26  1  0  0  0
 25 23  1  0  0  0
 23 10  1  0  0  0
 10 11  1  0  0  0
 11 12  1  0  0  0
 12 13  2  0  0  0
 12 15  1  0  0  0
 15 16  1  0  0  0
 16 17  1  0  0  0
 17 18  2  0  0  0
 18 19  1  0  0  0
 19 20  2  0  0  0
 20 21  1  0  0  0
 21 22  2  0  0  0
 10  6  1  0  0  0
  6  7  2  0  0  0
  6  8  1  0  0  0
  8  5  1  0  0  0
  5 27  1  0  0  0
 27 28  1  0  0  0
 28 29  2  0  0  0
 29 30  1  0  0  0
 30 31  2  0  0  0
 31 32  1  0  0  0
 32 33  2  0  0  0
  5  1  1  0  0  0
  1  2  2  0  0  0
  1  3  1  0  0  0
  3 34  1  0  0  0
 34 54  1  0  0  0
 54 55  1  0  0  0
 55 56  1  0  0  0
 56 57  1  0  0  0
 57 59  1  0  0  0
 59 60  1  0  0  0
 59 61  2  0  0  0
 34 35  1  0  0  0
 35 36  2  0  0  0
 35 37  1  0  0  0
 37 39  1  0  0  0
 39 45  1  0  0  0
 45 46  1  0  0  0
 46 47  2  0  0  0
 47 48  1  0  0  0
 48 49  2  0  0  0
 49 50  1  0  0  0
 49 51  1  0  0  0
 51 52  2  0  0  0
 39 40  1  0  0  0
 40 41  1  0  0  0
 40 42  2  0  0  0
 22 17  1  0  0  0
 33 28  1  0  0  0
 52 46  1  0  0  0
 11 14  1  0  0  0
  8  9  1  0  0  0
  3  4  1  0  0  0
 57 58  1  0  0  0
 60 62  1  0  0  0
 60 63  1  0  0  0
 61 64  1  0  0  0
 37 38  1  0  0  0
 50 53  1  0  0  0
 41 43  1  0  0  0
 41 44  1  0  0  0
M  END
> <minimizedAffinity>
-7.74065

> <CNNscore>
0.1119921505

> <CNNaffinity>
7.1029348373

> <CNN_VS>
0.7954729199

> <CNNaffinity_variance>
0.2858297825

$$$$
[H]N=C(N([H])[H])N([H])C([H])([H])C([H])([H])C([H])([H])[C@@]([H])(C(=O)N([H])[C@]([H])(C(=O)N([H])[H])C([H])([H])c1c([H])c([H])c(O[H])c([H])c1[H])N([H])C(=O)[C@@]([H])(N([H])C(=O)[C@@]([H])(N([H])C(=O)OC([H])([H])c1c([H])c([H])c([H])c([H])c1[H])C([H])([H])C([H])(C([H])([H])[H])C([H])([H])[H])C([H])([H])c1c([H])c([H])c([H])c([H])c1[H]


 64 66  0  0  0  0  0  0  0  0999 V2000
    3.4689  -51.8998  -25.0425 C   0  0  0  0  0  0  0  0  0  0  0  0
    3.3459  -53.1198  -24.8000 O   0  0  0  0  0  0  0  0  0  0  0  0
    4.1500  -51.0358  -24.1970 N   0  0  0  0  0  0  0  0  0  0  0  0
    4.1835  -50.0047  -24.5259 H   0  0  0  0  0  0  0  0  0  0  0  0
    2.8403  -51.4088  -26.3090 C   0  0  0  0  0  0  0  0  0  0  0  0
    3.6583  -49.1050  -26.8348 C   0  0  0  0  0  0  0  0  0  0  0  0
    2.8535  -48.7355  -25.8820 O   0  0  0  0  0  0  0  0  0  0  0  0
    3.6727  -50.5044  -27.0686 N   0  0  0  0  0  0  0  0  0  0  0  0
    4.2797  -50.8894  -27.8039 H   0  0  0  0  0  0  0  0  0  0  0  0
    4.3791  -48.0353  -27.4884 C   0  0  0  0  0  0  0  0  0  0  0  0
    5.6200  -48.6948  -28.0592 N   0  0  0  0  0  0  0  0  0  0  0  0
    6.9047  -48.1885  -27.8211 C   0  0  0  0  0  0  0  0  0  0  0  0
    7.1171  -47.1572  -27.1285 O   0  0  0  0  0  0  0  0  0  0  0  0
    5.4998  -49.5442  -28.6417 H   0  0  0  0  0  0  0  0  0  0  0  0
    8.0404  -48.8081  -28.3418 O   0  0  0  0  0  0  0  0  0  0  0  0
    8.8039  -48.1823  -29.3514 C   0  0  0  0  0  0  0  0  0  0  0  0
    8.0127  -47.9043  -30.5498 C   0  0  0  0  0  0  0  0  0  0  0  0
    7.6153  -46.6175  -30.8296 C   0  0  0  0  0  0  0  0  0  0  0  0
    6.8472  -46.3419  -31.9723 C   0  0  0  0  0  0  0  0  0  0  0  0
    6.4920  -47.3560  -32.8125 C   0  0  0  0  0  0  0  0  0  0  0  0
    6.8773  -48.6360  -32.5508 C   0  0  0  0  0  0  0  0  0  0  0  0
    7.6428  -48.9080  -31.4106 C   0  0  0  0  0  0  0  0  0  0  0  0
    3.8330  -47.3563  -28.6862 C   0  0  0  0  0  0  0  0  0  0  0  0
    2.0874  -45.8401  -27.8386 C   0  0  0  0  0  0  0  0  0  0  0  0
    3.4204  -45.9438  -28.6728 C   0  0  0  0  0  0  0  0  0  0  0  0
    4.3920  -44.9812  -28.0131 C   0  0  0  0  0  0  0  0  0  0  0  0
    2.3037  -52.5374  -27.1325 C   0  0  0  0  0  0  0  0  0  0  0  0
    0.8476  -52.5088  -27.3249 C   0  0  0  0  0  0  0  0  0  0  0  0
    0.0577  -52.1436  -26.2502 C   0  0  0  0  0  0  0  0  0  0  0  0
   -1.3353  -52.0924  -26.3540 C   0  0  0  0  0  0  0  0  0  0  0  0
   -1.8913  -52.4205  -27.5725 C   0  0  0  0  0  0  0  0  0  0  0  0
   -1.0957  -52.7837  -28.6384 C   0  0  0  0  0  0  0  0  0  0  0  0
    0.2834  -52.8352  -28.5381 C   0  0  0  0  0  0  0  0  0  0  0  0
    4.8259  -51.2350  -22.9604 C   0  0  0  0  0  0  0  0  0  0  0  0
    4.0354  -50.6944  -21.8116 C   0  0  0  0  0  0  0  0  0  0  0  0
    3.8524  -49.4555  -21.7919 O   0  0  0  0  0  0  0  0  0  0  0  0
    3.5021  -51.4822  -20.7723 N   0  0  0  0  0  0  0  0  0  0  0  0
    3.6551  -52.5100  -20.7822 H   0  0  0  0  0  0  0  0  0  0  0  0
    2.7549  -50.8448  -19.7064 C   0  0  0  0  0  0  0  0  0  0  0  0
    3.6527  -50.6095  -18.5188 C   0  0  0  0  0  0  0  0  0  0  0  0
    4.5936  -49.5476  -18.5314 N   0  0  0  0  0  0  0  0  0  0  0  0
    3.5869  -51.3453  -17.5014 O   0  0  0  0  0  0  0  0  0  0  0  0
    4.7343  -48.9326  -19.3722 H   0  0  0  0  0  0  0  0  0  0  0  0
    5.1862  -49.3304  -17.7056 H   0  0  0  0  0  0  0  0  0  0  0  0
    1.5249  -51.5932  -19.3388 C   0  0  0  0  0  0  0  0  0  0  0  0
    0.8261  -52.2674  -20.4322 C   0  0  0  0  0  0  0  0  0  0  0  0
    0.4333  -51.7039  -21.6235 C   0  0  0  0  0  0  0  0  0  0  0  0
   -0.2332  -52.4305  -22.6125 C   0  0  0  0  0  0  0  0  0  0  0  0
   -0.5258  -53.7636  -22.4241 C   0  0  0  0  0  0  0  0  0  0  0  0
   -1.1916  -54.4855  -23.4143 O   0  0  0  0  0  0  0  0  0  0  0  0
   -0.1361  -54.3337  -21.2357 C   0  0  0  0  0  0  0  0  0  0  0  0
    0.5189  -53.6195  -20.2632 C   0  0  0  0  0  0  0  0  0  0  0  0
   -0.6194  -54.9554  -24.1199 H   0  0  0  0  0  0  0  0  0  0  0  0
    6.2248  -50.6525  -22.9389 C   0  0  0  0  0  0  0  0  0  0  0  0
    6.5200  -49.8365  -24.1574 C   0  0  0  0  0  0  0  0  0  0  0  0
    6.6000  -48.3694  -23.8753 C   0  0  0  0  0  0  0  0  0  0  0  0
    5.2535  -47.7885  -23.8871 N   0  0  0  0  0  0  0  0  0  0  0  0
    4.4500  -48.3589  -23.5398 H   0  0  0  0  0  0  0  0  0  0  0  0
    4.9897  -46.4932  -24.3464 C   0  0  0  0  0  0  0  0  0  0  0  0
    6.0677  -45.6344  -24.6842 N   0  0  0  0  0  0  0  0  0  0  0  0
    3.7939  -46.0501  -24.4745 N   0  0  0  0  0  0  0  0  0  0  0  0
    6.6753  -45.2182  -23.9559 H   0  0  0  0  0  0  0  0  0  0  0  0
    6.2945  -45.3871  -25.6835 H   0  0  0  0  0  0  0  0  0  0  0  0
    2.9243  -46.5718  -24.2641 H   0  0  0  0  0  0  0  0  0  0  0  0
 24 25  1  0  0  0
 25 26  1  0  0  0
 25 23  1  0  0  0
 23 10  1  0  0  0
 10 11  1  0  0  0
 11 12  1  0  0  0
 12 13  2  0  0  0
 12 15  1  0  0  0
 15 16  1  0  0  0
 16 17  1  0  0  0
 17 18  2  0  0  0
 18 19  1  0  0  0
 19 20  2  0  0  0
 20 21  1  0  0  0
 21 22  2  0  0  0
 10  6  1  0  0  0
  6  7  2  0  0  0
  6  8  1  0  0  0
  8  5  1  0  0  0
  5 27  1  0  0  0
 27 28  1  0  0  0
 28 29  2  0  0  0
 29 30  1  0  0  0
 30 31  2  0  0  0
 31 32  1  0  0  0
 32 33  2  0  0  0
  5  1  1  0  0  0
  1  2  2  0  0  0
  1  3  1  0  0  0
  3 34  1  0  0  0
 34 54  1  0  0  0
 54 55  1  0  0  0
 55 56  1  0  0  0
 56 57  1  0  0  0
 57 59  1  0  0  0
 59 60  1  0  0  0
 59 61  2  0  0  0
 34 35  1  0  0  0
 35 36  2  0  0  0
 35 37  1  0  0  0
 37 39  1  0  0  0
 39 45  1  0  0  0
 45 46  1  0  0  0
 46 47  2  0  0  0
 47 48  1  0  0  0
 48 49  2  0  0  0
 49 50  1  0  0  0
 49 51  1  0  0  0
 51 52  2  0  0  0
 39 40  1  0  0  0
 40 41  1  0  0  0
 40 42  2  0  0  0
 22 17  1  0  0  0
 33 28  1  0  0  0
 52 46  1  0  0  0
 11 14  1  0  0  0
  8  9  1  0  0  0
  3  4  1  0  0  0
 57 58  1  0  0  0
 60 62  1  0  0  0
 60 63  1  0  0  0
 61 64  1  0  0  0
 37 38  1  0  0  0
 50 53  1  0  0  0
 41 43  1  0  0  0
 41 44  1  0  0  0
M  END
> <minimizedAffinity>
-7.40798

> <CNNscore>
0.0913970023

> <CNNaffinity>
6.9318971634

> <CNN_VS>
0.6335546374

> <CNNaffinity_variance>
0.5953898430

$$$$
[H]N=C(N([H])[H])N([H])C([H])([H])C([H])([H])C([H])([H])[C@@]([H])(C(=O)N([H])[C@]([H])(C(=O)N([H])[H])C([H])([H])c1c([H])c([H])c(O[H])c([H])c1[H])N([H])C(=O)[C@@]([H])(N([H])C(=O)[C@@]([H])(N([H])C(=O)OC([H])([H])c1c([H])c([H])c([H])c([H])c1[H])C([H])([H])C([H])(C([H])([H])[H])C([H])([H])[H])C([H])([H])c1c([H])c([H])c([H])c([H])c1[H]


 64 66  0  0  0  0  0  0  0  0999 V2000
    4.0584  -47.7955  -23.9551 C   0  0  0  0  0  0  0  0  0  0  0  0
    2.9183  -48.0295  -23.4994 O   0  0  0  0  0  0  0  0  0  0  0  0
    4.3432  -47.8400  -25.3124 N   0  0  0  0  0  0  0  0  0  0  0  0
    5.3701  -47.6151  -25.5725 H   0  0  0  0  0  0  0  0  0  0  0  0
    5.1166  -47.4563  -22.9523 C   0  0  0  0  0  0  0  0  0  0  0  0
    4.1379  -46.8737  -20.7262 C   0  0  0  0  0  0  0  0  0  0  0  0
    3.8911  -45.7205  -21.2749 O   0  0  0  0  0  0  0  0  0  0  0  0
    4.7725  -47.8015  -21.5921 N   0  0  0  0  0  0  0  0  0  0  0  0
    5.0069  -48.7405  -21.2450 H   0  0  0  0  0  0  0  0  0  0  0  0
    3.7376  -47.0014  -19.3426 C   0  0  0  0  0  0  0  0  0  0  0  0
    3.4370  -48.4767  -19.1594 N   0  0  0  0  0  0  0  0  0  0  0  0
    2.2438  -49.0525  -19.6160 C   0  0  0  0  0  0  0  0  0  0  0  0
    1.3434  -48.3911  -20.1993 O   0  0  0  0  0  0  0  0  0  0  0  0
    4.1435  -49.0651  -18.6798 H   0  0  0  0  0  0  0  0  0  0  0  0
    1.9812  -50.4122  -19.4522 O   0  0  0  0  0  0  0  0  0  0  0  0
    0.6535  -50.8834  -19.3566 C   0  0  0  0  0  0  0  0  0  0  0  0
    0.3405  -51.8668  -20.3931 C   0  0  0  0  0  0  0  0  0  0  0  0
    0.0704  -53.1703  -20.0468 C   0  0  0  0  0  0  0  0  0  0  0  0
   -0.2214  -54.1240  -21.0352 C   0  0  0  0  0  0  0  0  0  0  0  0
   -0.2383  -53.7570  -22.3488 C   0  0  0  0  0  0  0  0  0  0  0  0
    0.0264  -52.4705  -22.7094 C   0  0  0  0  0  0  0  0  0  0  0  0
    0.3175  -51.5218  -21.7219 C   0  0  0  0  0  0  0  0  0  0  0  0
    4.6936  -46.7596  -18.2373 C   0  0  0  0  0  0  0  0  0  0  0  0
    5.5473  -46.4791  -15.9445 C   0  0  0  0  0  0  0  0  0  0  0  0
    4.3370  -46.9714  -16.8254 C   0  0  0  0  0  0  0  0  0  0  0  0
    3.1282  -46.1977  -16.3293 C   0  0  0  0  0  0  0  0  0  0  0  0
    6.4565  -47.9800  -23.3652 C   0  0  0  0  0  0  0  0  0  0  0  0
    7.5314  -47.7260  -22.3967 C   0  0  0  0  0  0  0  0  0  0  0  0
    7.7929  -46.4142  -22.0461 C   0  0  0  0  0  0  0  0  0  0  0  0
    8.7994  -46.0912  -21.1313 C   0  0  0  0  0  0  0  0  0  0  0  0
    9.5219  -47.1343  -20.5914 C   0  0  0  0  0  0  0  0  0  0  0  0
    9.2542  -48.4392  -20.9473 C   0  0  0  0  0  0  0  0  0  0  0  0
    8.2584  -48.7614  -21.8525 C   0  0  0  0  0  0  0  0  0  0  0  0
    3.5430  -48.1279  -26.4535 C   0  0  0  0  0  0  0  0  0  0  0  0
    3.1560  -49.5719  -26.5002 C   0  0  0  0  0  0  0  0  0  0  0  0
    3.5401  -50.2222  -27.4993 O   0  0  0  0  0  0  0  0  0  0  0  0
    2.3972  -50.2244  -25.5084 N   0  0  0  0  0  0  0  0  0  0  0  0
    2.0726  -49.6878  -24.6798 H   0  0  0  0  0  0  0  0  0  0  0  0
    2.0786  -51.6297  -25.6644 C   0  0  0  0  0  0  0  0  0  0  0  0
    3.2442  -52.4739  -25.2165 C   0  0  0  0  0  0  0  0  0  0  0  0
    4.1078  -53.0677  -26.1728 N   0  0  0  0  0  0  0  0  0  0  0  0
    3.4716  -52.6683  -23.9952 O   0  0  0  0  0  0  0  0  0  0  0  0
    3.9392  -52.9877  -27.2072 H   0  0  0  0  0  0  0  0  0  0  0  0
    4.9490  -53.6090  -25.8903 H   0  0  0  0  0  0  0  0  0  0  0  0
    1.6377  -51.9702  -27.0421 C   0  0  0  0  0  0  0  0  0  0  0  0
    0.1988  -52.1431  -27.2372 C   0  0  0  0  0  0  0  0  0  0  0  0
   -0.7886  -51.8929  -26.3133 C   0  0  0  0  0  0  0  0  0  0  0  0
   -2.1428  -52.0900  -26.5917 C   0  0  0  0  0  0  0  0  0  0  0  0
   -2.5434  -52.5512  -27.8267 C   0  0  0  0  0  0  0  0  0  0  0  0
   -3.8969  -52.7466  -28.1005 O   0  0  0  0  0  0  0  0  0  0  0  0
   -1.5620  -52.8033  -28.7554 C   0  0  0  0  0  0  0  0  0  0  0  0
   -0.2306  -52.6099  -28.4817 C   0  0  0  0  0  0  0  0  0  0  0  0
   -4.4173  -51.9572  -28.4905 H   0  0  0  0  0  0  0  0  0  0  0  0
    4.1960  -47.7300  -27.7620 C   0  0  0  0  0  0  0  0  0  0  0  0
    5.3208  -46.7636  -27.5656 C   0  0  0  0  0  0  0  0  0  0  0  0
    4.9302  -45.3457  -27.8396 C   0  0  0  0  0  0  0  0  0  0  0  0
    5.1160  -44.5380  -26.6298 N   0  0  0  0  0  0  0  0  0  0  0  0
    6.0349  -44.5685  -26.1336 H   0  0  0  0  0  0  0  0  0  0  0  0
    4.1110  -43.7197  -26.1018 C   0  0  0  0  0  0  0  0  0  0  0  0
    4.0238  -42.3629  -26.5082 N   0  0  0  0  0  0  0  0  0  0  0  0
    3.2559  -44.1584  -25.2538 N   0  0  0  0  0  0  0  0  0  0  0  0
    4.7168  -41.6597  -26.1951 H   0  0  0  0  0  0  0  0  0  0  0  0
    3.2563  -42.0168  -27.1427 H   0  0  0  0  0  0  0  0  0  0  0  0
    3.2092  -45.1221  -24.8775 H   0  0  0  0  0  0  0  0  0  0  0  0
 24 25  1  0  0  0
 25 26  1  0  0  0
 25 23  1  0  0  0
 23 10  1  0  0  0
 10 11  1  0  0  0
 11 12  1  0  0  0
 12 13  2  0  0  0
 12 15  1  0  0  0
 15 16  1  0  0  0
 16 17  1  0  0  0
 17 18  2  0  0  0
 18 19  1  0  0  0
 19 20  2  0  0  0
 20 21  1  0  0  0
 21 22  2  0  0  0
 10  6  1  0  0  0
  6  7  2  0  0  0
  6  8  1  0  0  0
  8  5  1  0  0  0
  5 27  1  0  0  0
 27 28  1  0  0  0
 28 29  2  0  0  0
 29 30  1  0  0  0
 30 31  2  0  0  0
 31 32  1  0  0  0
 32 33  2  0  0  0
  5  1  1  0  0  0
  1  2  2  0  0  0
  1  3  1  0  0  0
  3 34  1  0  0  0
 34 54  1  0  0  0
 54 55  1  0  0  0
 55 56  1  0  0  0
 56 57  1  0  0  0
 57 59  1  0  0  0
 59 60  1  0  0  0
 59 61  2  0  0  0
 34 35  1  0  0  0
 35 36  2  0  0  0
 35 37  1  0  0  0
 37 39  1  0  0  0
 39 45  1  0  0  0
 45 46  1  0  0  0
 46 47  2  0  0  0
 47 48  1  0  0  0
 48 49  2  0  0  0
 49 50  1  0  0  0
 49 51  1  0  0  0
 51 52  2  0  0  0
 39 40  1  0  0  0
 40 41  1  0  0  0
 40 42  2  0  0  0
 22 17  1  0  0  0
 33 28  1  0  0  0
 52 46  1  0  0  0
 11 14  1  0  0  0
  8  9  1  0  0  0
  3  4  1  0  0  0
 57 58  1  0  0  0
 60 62  1  0  0  0
 60 63  1  0  0  0
 61 64  1  0  0  0
 37 38  1  0  0  0
 50 53  1  0  0  0
 41 43  1  0  0  0
 41 44  1  0  0  0
M  END
> <minimizedAffinity>
-7.27579

> <CNNscore>
0.0899406224

> <CNNaffinity>
6.5817937851

> <CNN_VS>
0.5919706225

> <CNNaffinity_variance>
0.7432617545

$$$$
[H]N=C(N([H])[H])N([H])C([H])([H])C([H])([H])C([H])([H])[C@@]([H])(C(=O)N([H])[C@]([H])(C(=O)N([H])[H])C([H])([H])c1c([H])c([H])c(O[H])c([H])c1[H])N([H])C(=O)[C@@]([H])(N([H])C(=O)[C@@]([H])(N([H])C(=O)OC([H])([H])c1c([H])c([H])c([H])c([H])c1[H])C([H])([H])C([H])(C([H])([H])[H])C([H])([H])[H])C([H])([H])c1c([H])c([H])c([H])c([H])c1[H]


 64 66  0  0  0  0  0  0  0  0999 V2000
    2.7492  -49.9774  -22.3516 C   0  0  0  0  0  0  0  0  0  0  0  0
    1.7529  -49.7908  -23.0832 O   0  0  0  0  0  0  0  0  0  0  0  0
    3.9575  -50.4506  -22.8427 N   0  0  0  0  0  0  0  0  0  0  0  0
    4.7394  -50.5654  -22.1024 H   0  0  0  0  0  0  0  0  0  0  0  0
    2.5749  -49.6576  -20.8999 C   0  0  0  0  0  0  0  0  0  0  0  0
    4.6179  -48.7801  -19.7557 C   0  0  0  0  0  0  0  0  0  0  0  0
    4.9272  -50.0356  -19.6142 O   0  0  0  0  0  0  0  0  0  0  0  0
    3.3919  -48.5602  -20.4354 N   0  0  0  0  0  0  0  0  0  0  0  0
    3.0655  -47.5981  -20.5937 H   0  0  0  0  0  0  0  0  0  0  0  0
    5.5613  -47.8409  -19.1911 C   0  0  0  0  0  0  0  0  0  0  0  0
    5.5842  -46.6793  -20.1662 N   0  0  0  0  0  0  0  0  0  0  0  0
    6.5503  -46.5781  -21.1761 C   0  0  0  0  0  0  0  0  0  0  0  0
    7.4622  -47.4326  -21.3399 O   0  0  0  0  0  0  0  0  0  0  0  0
    4.8582  -45.9450  -20.0710 H   0  0  0  0  0  0  0  0  0  0  0  0
    6.5567  -45.5115  -22.0745 O   0  0  0  0  0  0  0  0  0  0  0  0
    5.3758  -45.1291  -22.7477 C   0  0  0  0  0  0  0  0  0  0  0  0
    5.0628  -46.0210  -23.8638 C   0  0  0  0  0  0  0  0  0  0  0  0
    3.8004  -46.5533  -23.9870 C   0  0  0  0  0  0  0  0  0  0  0  0
    3.4929  -47.4184  -25.0494 C   0  0  0  0  0  0  0  0  0  0  0  0
    4.4512  -47.7341  -25.9672 C   0  0  0  0  0  0  0  0  0  0  0  0
    5.7063  -47.2157  -25.8605 C   0  0  0  0  0  0  0  0  0  0  0  0
    6.0103  -46.3537  -24.8001 C   0  0  0  0  0  0  0  0  0  0  0  0
    5.2852  -47.1434  -17.9138 C   0  0  0  0  0  0  0  0  0  0  0  0
    3.8846  -47.7276  -15.9744 C   0  0  0  0  0  0  0  0  0  0  0  0
    3.9247  -46.9999  -17.3716 C   0  0  0  0  0  0  0  0  0  0  0  0
    3.4701  -45.5759  -17.1047 C   0  0  0  0  0  0  0  0  0  0  0  0
    1.1309  -49.5027  -20.5382 C   0  0  0  0  0  0  0  0  0  0  0  0
    0.7681  -50.0724  -19.2337 C   0  0  0  0  0  0  0  0  0  0  0  0
    1.0407  -49.3273  -18.1012 C   0  0  0  0  0  0  0  0  0  0  0  0
    0.7255  -49.8005  -16.8242 C   0  0  0  0  0  0  0  0  0  0  0  0
    0.1306  -51.0417  -16.7386 C   0  0  0  0  0  0  0  0  0  0  0  0
   -0.1372  -51.7776  -17.8734 C   0  0  0  0  0  0  0  0  0  0  0  0
    0.1739  -51.3113  -19.1385 C   0  0  0  0  0  0  0  0  0  0  0  0
    4.3848  -50.8234  -24.1481 C   0  0  0  0  0  0  0  0  0  0  0  0
    3.5698  -51.9553  -24.6880 C   0  0  0  0  0  0  0  0  0  0  0  0
    3.8967  -53.1065  -24.3183 O   0  0  0  0  0  0  0  0  0  0  0  0
    2.4837  -51.8024  -25.5725 N   0  0  0  0  0  0  0  0  0  0  0  0
    2.2117  -50.8495  -25.8854 H   0  0  0  0  0  0  0  0  0  0  0  0
    1.7696  -52.9762  -26.0337 C   0  0  0  0  0  0  0  0  0  0  0  0
    2.1016  -53.2451  -27.4791 C   0  0  0  0  0  0  0  0  0  0  0  0
    3.1521  -52.5358  -28.1166 N   0  0  0  0  0  0  0  0  0  0  0  0
    1.4578  -54.0961  -28.1441 O   0  0  0  0  0  0  0  0  0  0  0  0
    3.6905  -51.7745  -27.6312 H   0  0  0  0  0  0  0  0  0  0  0  0
    3.4366  -52.7401  -29.0952 H   0  0  0  0  0  0  0  0  0  0  0  0
    0.3043  -52.8855  -25.8035 C   0  0  0  0  0  0  0  0  0  0  0  0
   -0.1796  -53.3719  -24.5121 C   0  0  0  0  0  0  0  0  0  0  0  0
   -0.6953  -54.6190  -24.2480 C   0  0  0  0  0  0  0  0  0  0  0  0
   -1.1353  -54.9943  -22.9769 C   0  0  0  0  0  0  0  0  0  0  0  0
   -1.0662  -54.1094  -21.9230 C   0  0  0  0  0  0  0  0  0  0  0  0
   -1.5067  -54.4883  -20.6551 O   0  0  0  0  0  0  0  0  0  0  0  0
   -0.5517  -52.8610  -22.1794 C   0  0  0  0  0  0  0  0  0  0  0  0
   -0.1194  -52.4918  -23.4291 C   0  0  0  0  0  0  0  0  0  0  0  0
   -0.8232  -54.9196  -20.0284 H   0  0  0  0  0  0  0  0  0  0  0  0
    5.8579  -51.1717  -24.2222 C   0  0  0  0  0  0  0  0  0  0  0  0
    6.6935  -50.3009  -23.3384 C   0  0  0  0  0  0  0  0  0  0  0  0
    7.9168  -49.7752  -24.0206 C   0  0  0  0  0  0  0  0  0  0  0  0
    7.8399  -50.0527  -25.4586 N   0  0  0  0  0  0  0  0  0  0  0  0
    7.0504  -50.6314  -25.8238 H   0  0  0  0  0  0  0  0  0  0  0  0
    8.7833  -49.5750  -26.3752 C   0  0  0  0  0  0  0  0  0  0  0  0
    9.2338  -48.2324  -26.2846 N   0  0  0  0  0  0  0  0  0  0  0  0
    9.2606  -50.3169  -27.3049 N   0  0  0  0  0  0  0  0  0  0  0  0
    8.6227  -47.4387  -26.5482 H   0  0  0  0  0  0  0  0  0  0  0  0
   10.2018  -47.9884  -25.9461 H   0  0  0  0  0  0  0  0  0  0  0  0
    9.0174  -51.3083  -27.4795 H   0  0  0  0  0  0  0  0  0  0  0  0
 24 25  1  0  0  0
 25 26  1  0  0  0
 25 23  1  0  0  0
 23 10  1  0  0  0
 10 11  1  0  0  0
 11 12  1  0  0  0
 12 13  2  0  0  0
 12 15  1  0  0  0
 15 16  1  0  0  0
 16 17  1  0  0  0
 17 18  2  0  0  0
 18 19  1  0  0  0
 19 20  2  0  0  0
 20 21  1  0  0  0
 21 22  2  0  0  0
 10  6  1  0  0  0
  6  7  2  0  0  0
  6  8  1  0  0  0
  8  5  1  0  0  0
  5 27  1  0  0  0
 27 28  1  0  0  0
 28 29  2  0  0  0
 29 30  1  0  0  0
 30 31  2  0  0  0
 31 32  1  0  0  0
 32 33  2  0  0  0
  5  1  1  0  0  0
  1  2  2  0  0  0
  1  3  1  0  0  0
  3 34  1  0  0  0
 34 54  1  0  0  0
 54 55  1  0  0  0
 55 56  1  0  0  0
 56 57  1  0  0  0
 57 59  1  0  0  0
 59 60  1  0  0  0
 59 61  2  0  0  0
 34 35  1  0  0  0
 35 36  2  0  0  0
 35 37  1  0  0  0
 37 39  1  0  0  0
 39 45  1  0  0  0
 45 46  1  0  0  0
 46 47  2  0  0  0
 47 48  1  0  0  0
 48 49  2  0  0  0
 49 50  1  0  0  0
 49 51  1  0  0  0
 51 52  2  0  0  0
 39 40  1  0  0  0
 40 41  1  0  0  0
 40 42  2  0  0  0
 22 17  1  0  0  0
 33 28  1  0  0  0
 52 46  1  0  0  0
 11 14  1  0  0  0
  8  9  1  0  0  0
  3  4  1  0  0  0
 57 58  1  0  0  0
 60 62  1  0  0  0
 60 63  1  0  0  0
 61 64  1  0  0  0
 37 38  1  0  0  0
 50 53  1  0  0  0
 41 43  1  0  0  0
 41 44  1  0  0  0
M  END
> <minimizedAffinity>
-6.98740

> <CNNscore>
0.0804946199

> <CNNaffinity>
6.9593415260

> <CNN_VS>
0.5601895452

> <CNNaffinity_variance>
0.5171908140

$$$$
[H]OC([H])([H])C([H])([H])C([H])([H])n1c(C([H])([H])c2c([H])c([H])c([H])c([H])c2[H])nc2c([H])c([H])c([H])c([H])c21


 21 23  0  0  0  0  0  0  0  0999 V2000
    0.3879  -52.2923  -24.7935 C   0  0  0  0  0  0  0  0  0  0  0  0
   -0.9231  -52.0606  -25.0136 N   0  0  0  0  0  0  0  0  0  0  0  0
   -1.2223  -52.2642  -26.2874 C   0  0  0  0  0  0  0  0  0  0  0  0
   -2.4214  -52.1488  -26.9498 C   0  0  0  0  0  0  0  0  0  0  0  0
   -2.4644  -52.4203  -28.2889 C   0  0  0  0  0  0  0  0  0  0  0  0
   -1.3059  -52.8024  -28.9406 C   0  0  0  0  0  0  0  0  0  0  0  0
   -0.0975  -52.9155  -28.2578 C   0  0  0  0  0  0  0  0  0  0  0  0
   -0.0499  -52.6425  -26.9069 C   0  0  0  0  0  0  0  0  0  0  0  0
    0.9347  -52.6541  -25.9654 N   0  0  0  0  0  0  0  0  0  0  0  0
    1.0056  -52.1515  -23.4601 C   0  0  0  0  0  0  0  0  0  0  0  0
    0.1428  -52.7635  -22.3996 C   0  0  0  0  0  0  0  0  0  0  0  0
   -0.4820  -53.9761  -22.5462 C   0  0  0  0  0  0  0  0  0  0  0  0
   -1.2756  -54.4995  -21.5185 C   0  0  0  0  0  0  0  0  0  0  0  0
   -1.4468  -53.8089  -20.3373 C   0  0  0  0  0  0  0  0  0  0  0  0
   -0.8266  -52.5856  -20.1684 C   0  0  0  0  0  0  0  0  0  0  0  0
   -0.0572  -52.0957  -21.1859 C   0  0  0  0  0  0  0  0  0  0  0  0
    2.3028  -53.0031  -26.2124 C   0  0  0  0  0  0  0  0  0  0  0  0
    3.2353  -51.8292  -25.9758 C   0  0  0  0  0  0  0  0  0  0  0  0
    3.2134  -50.9713  -27.2458 C   0  0  0  0  0  0  0  0  0  0  0  0
    3.3885  -51.7661  -28.3721 O   0  0  0  0  0  0  0  0  0  0  0  0
    2.5065  -51.8996  -28.7949 H   0  0  0  0  0  0  0  0  0  0  0  0
 10  1  1  0  0  0
  1  2  2  0  0  0
  2  3  1  0  0  0
  3  4  2  0  0  0
  4  5  1  0  0  0
  5  6  2  0  0  0
  6  7  1  0  0  0
  7  8  2  0  0  0
  8  9  1  0  0  0
  9 17  1  0  0  0
 17 18  1  0  0  0
 18 19  1  0  0  0
 19 20  1  0  0  0
 10 11  1  0  0  0
 11 12  2  0  0  0
 12 13  1  0  0  0
 13 14  2  0  0  0
 14 15  1  0  0  0
 15 16  2  0  0  0
  9  1  1  0  0  0
 16 11  1  0  0  0
  8  3  1  0  0  0
 20 21  1  0  0  0
M  END
> <minimizedAffinity>
-7.17271

> <CNNscore>
0.7234067321

> <CNNaffinity>
5.9009084702

> <CNN_VS>
4.2687568665

> <CNNaffinity_variance>
0.0816345662

$$$$
[H]OC([H])([H])C([H])([H])C([H])([H])n1c(C([H])([H])c2c([H])c([H])c([H])c([H])c2[H])nc2c([H])c([H])c([H])c([H])c21


 21 23  0  0  0  0  0  0  0  0999 V2000
    0.6443  -52.6288  -24.4756 C   0  0  0  0  0  0  0  0  0  0  0  0
   -0.1053  -53.6490  -24.0087 N   0  0  0  0  0  0  0  0  0  0  0  0
   -0.2815  -53.5344  -22.7014 C   0  0  0  0  0  0  0  0  0  0  0  0
   -0.9688  -54.3367  -21.8218 C   0  0  0  0  0  0  0  0  0  0  0  0
   -0.9989  -53.9920  -20.4993 C   0  0  0  0  0  0  0  0  0  0  0  0
   -0.3400  -52.8500  -20.0814 C   0  0  0  0  0  0  0  0  0  0  0  0
    0.3528  -52.0458  -20.9827 C   0  0  0  0  0  0  0  0  0  0  0  0
    0.3855  -52.3901  -22.3177 C   0  0  0  0  0  0  0  0  0  0  0  0
    0.9515  -51.8441  -23.4301 N   0  0  0  0  0  0  0  0  0  0  0  0
    0.9973  -52.4915  -25.9025 C   0  0  0  0  0  0  0  0  0  0  0  0
   -0.2297  -52.4750  -26.7615 C   0  0  0  0  0  0  0  0  0  0  0  0
   -1.4742  -52.1439  -26.2881 C   0  0  0  0  0  0  0  0  0  0  0  0
   -2.5854  -52.1439  -27.1397 C   0  0  0  0  0  0  0  0  0  0  0  0
   -2.4543  -52.4762  -28.4715 C   0  0  0  0  0  0  0  0  0  0  0  0
   -1.2100  -52.8130  -28.9693 C   0  0  0  0  0  0  0  0  0  0  0  0
   -0.1406  -52.8057  -28.1187 C   0  0  0  0  0  0  0  0  0  0  0  0
    1.7268  -50.6387  -23.4494 C   0  0  0  0  0  0  0  0  0  0  0  0
    3.2116  -50.9214  -23.3119 C   0  0  0  0  0  0  0  0  0  0  0  0
    3.8784  -50.4831  -24.6206 C   0  0  0  0  0  0  0  0  0  0  0  0
    4.5274  -51.5564  -25.2185 O   0  0  0  0  0  0  0  0  0  0  0  0
    3.9605  -51.8873  -25.9558 H   0  0  0  0  0  0  0  0  0  0  0  0
 10  1  1  0  0  0
  1  2  2  0  0  0
  2  3  1  0  0  0
  3  4  2  0  0  0
  4  5  1  0  0  0
  5  6  2  0  0  0
  6  7  1  0  0  0
  7  8  2  0  0  0
  8  9  1  0  0  0
  9 17  1  0  0  0
 17 18  1  0  0  0
 18 19  1  0  0  0
 19 20  1  0  0  0
 10 11  1  0  0  0
 11 12  2  0  0  0
 12 13  1  0  0  0
 13 14  2  0  0  0
 14 15  1  0  0  0
 15 16  2  0  0  0
  9  1  1  0  0  0
 16 11  1  0  0  0
  8  3  1  0  0  0
 20 21  1  0  0  0
M  END
> <minimizedAffinity>
-7.17303

> <CNNscore>
0.6441575289

> <CNNaffinity>
5.7031426430

> <CNN_VS>
3.6737222672

> <CNNaffinity_variance>
0.1263813376

$$$$
[H]OC([H])([H])C([H])([H])C([H])([H])n1c(C([H])([H])c2c([H])c([H])c([H])c([H])c2[H])nc2c([H])c([H])c([H])c([H])c21


 21 23  0  0  0  0  0  0  0  0999 V2000
    1.0090  -52.4681  -24.1228 C   0  0  0  0  0  0  0  0  0  0  0  0
    0.0906  -53.4504  -24.0108 N   0  0  0  0  0  0  0  0  0  0  0  0
   -0.3444  -53.5384  -22.7632 C   0  0  0  0  0  0  0  0  0  0  0  0
   -1.2691  -54.3856  -22.2003 C   0  0  0  0  0  0  0  0  0  0  0  0
   -1.5445  -54.2696  -20.8663 C   0  0  0  0  0  0  0  0  0  0  0  0
   -0.8888  -53.3073  -20.1201 C   0  0  0  0  0  0  0  0  0  0  0  0
    0.0460  -52.4552  -20.7025 C   0  0  0  0  0  0  0  0  0  0  0  0
    0.3266  -52.5690  -22.0479 C   0  0  0  0  0  0  0  0  0  0  0  0
    1.1591  -51.9174  -22.9072 N   0  0  0  0  0  0  0  0  0  0  0  0
    1.6635  -52.1359  -25.4036 C   0  0  0  0  0  0  0  0  0  0  0  0
    0.7385  -52.3717  -26.5580 C   0  0  0  0  0  0  0  0  0  0  0  0
    1.1426  -52.9354  -27.7418 C   0  0  0  0  0  0  0  0  0  0  0  0
    0.2316  -53.1332  -28.7862 C   0  0  0  0  0  0  0  0  0  0  0  0
   -1.0906  -52.7665  -28.6487 C   0  0  0  0  0  0  0  0  0  0  0  0
   -1.5190  -52.1969  -27.4649 C   0  0  0  0  0  0  0  0  0  0  0  0
   -0.6111  -52.0140  -26.4601 C   0  0  0  0  0  0  0  0  0  0  0  0
    2.0252  -50.8335  -22.5478 C   0  0  0  0  0  0  0  0  0  0  0  0
    3.4369  -51.3116  -22.2606 C   0  0  0  0  0  0  0  0  0  0  0  0
    3.7453  -50.9591  -20.8011 C   0  0  0  0  0  0  0  0  0  0  0  0
    3.3696  -51.9995  -19.9602 O   0  0  0  0  0  0  0  0  0  0  0  0
    4.1819  -52.5005  -19.7082 H   0  0  0  0  0  0  0  0  0  0  0  0
 10  1  1  0  0  0
  1  2  2  0  0  0
  2  3  1  0  0  0
  3  4  2  0  0  0
  4  5  1  0  0  0
  5  6  2  0  0  0
  6  7  1  0  0  0
  7  8  2  0  0  0
  8  9  1  0  0  0
  9 17  1  0  0  0
 17 18  1  0  0  0
 18 19  1  0  0  0
 19 20  1  0  0  0
 10 11  1  0  0  0
 11 12  2  0  0  0
 12 13  1  0  0  0
 13 14  2  0  0  0
 14 15  1  0  0  0
 15 16  2  0  0  0
  9  1  1  0  0  0
 16 11  1  0  0  0
  8  3  1  0  0  0
 20 21  1  0  0  0
M  END
> <minimizedAffinity>
-6.92212

> <CNNscore>
0.6097134948

> <CNNaffinity>
5.7019057274

> <CNN_VS>
3.4765288830

> <CNNaffinity_variance>
0.0769059286

$$$$
[H]OC([H])([H])C([H])([H])C([H])([H])n1c(C([H])([H])c2c([H])c([H])c([H])c([H])c2[H])nc2c([H])c([H])c([H])c([H])c21


 21 23  0  0  0  0  0  0  0  0999 V2000
    0.8809  -53.0060  -24.4903 C   0  0  0  0  0  0  0  0  0  0  0  0
    0.0465  -52.9676  -23.4306 N   0  0  0  0  0  0  0  0  0  0  0  0
    0.3323  -51.9349  -22.6526 C   0  0  0  0  0  0  0  0  0  0  0  0
   -0.2514  -51.5141  -21.4813 C   0  0  0  0  0  0  0  0  0  0  0  0
    0.2398  -50.3982  -20.8629 C   0  0  0  0  0  0  0  0  0  0  0  0
    1.3065  -49.7239  -21.4286 C   0  0  0  0  0  0  0  0  0  0  0  0
    1.8888  -50.1607  -22.6158 C   0  0  0  0  0  0  0  0  0  0  0  0
    1.3963  -51.2859  -23.2427 C   0  0  0  0  0  0  0  0  0  0  0  0
    1.7208  -51.9641  -24.3788 N   0  0  0  0  0  0  0  0  0  0  0  0
    0.7924  -54.0475  -25.5328 C   0  0  0  0  0  0  0  0  0  0  0  0
    0.1763  -53.5044  -26.7855 C   0  0  0  0  0  0  0  0  0  0  0  0
    0.7928  -53.5569  -28.0101 C   0  0  0  0  0  0  0  0  0  0  0  0
    0.1666  -53.0342  -29.1478 C   0  0  0  0  0  0  0  0  0  0  0  0
   -1.0822  -52.4556  -29.0634 C   0  0  0  0  0  0  0  0  0  0  0  0
   -1.7212  -52.3921  -27.8398 C   0  0  0  0  0  0  0  0  0  0  0  0
   -1.0898  -52.9091  -26.7438 C   0  0  0  0  0  0  0  0  0  0  0  0
    2.7742  -51.5997  -25.2799 C   0  0  0  0  0  0  0  0  0  0  0  0
    2.3744  -50.4412  -26.1752 C   0  0  0  0  0  0  0  0  0  0  0  0
    3.4453  -49.3563  -26.0159 C   0  0  0  0  0  0  0  0  0  0  0  0
    2.9497  -48.1217  -26.4171 O   0  0  0  0  0  0  0  0  0  0  0  0
    2.7185  -47.6051  -25.6083 H   0  0  0  0  0  0  0  0  0  0  0  0
 10  1  1  0  0  0
  1  2  2  0  0  0
  2  3  1  0  0  0
  3  4  2  0  0  0
  4  5  1  0  0  0
  5  6  2  0  0  0
  6  7  1  0  0  0
  7  8  2  0  0  0
  8  9  1  0  0  0
  9 17  1  0  0  0
 17 18  1  0  0  0
 18 19  1  0  0  0
 19 20  1  0  0  0
 10 11  1  0  0  0
 11 12  2  0  0  0
 12 13  1  0  0  0
 13 14  2  0  0  0
 14 15  1  0  0  0
 15 16  2  0  0  0
  9  1  1  0  0  0
 16 11  1  0  0  0
  8  3  1  0  0  0
 20 21  1  0  0  0
M  END
> <minimizedAffinity>
-6.36153

> <CNNscore>
0.5877959132

> <CNNaffinity>
5.6686081886

> <CNN_VS>
3.3319847584

> <CNNaffinity_variance>
0.1792888343

$$$$
[H]OC([H])([H])C([H])([H])C([H])([H])n1c(C([H])([H])c2c([H])c([H])c([H])c([H])c2[H])nc2c([H])c([H])c([H])c([H])c21


 21 23  0  0  0  0  0  0  0  0999 V2000
    0.6153  -53.1245  -24.5139 C   0  0  0  0  0  0  0  0  0  0  0  0
   -0.1765  -53.0839  -23.4220 N   0  0  0  0  0  0  0  0  0  0  0  0
    0.1673  -52.0742  -22.6373 C   0  0  0  0  0  0  0  0  0  0  0  0
   -0.3592  -51.6602  -21.4368 C   0  0  0  0  0  0  0  0  0  0  0  0
    0.1858  -50.5699  -20.8180 C   0  0  0  0  0  0  0  0  0  0  0  0
    1.2483  -49.9138  -21.4125 C   0  0  0  0  0  0  0  0  0  0  0  0
    1.7724  -50.3434  -22.6291 C   0  0  0  0  0  0  0  0  0  0  0  0
    1.2254  -51.4429  -23.2565 C   0  0  0  0  0  0  0  0  0  0  0  0
    1.4873  -52.1078  -24.4164 N   0  0  0  0  0  0  0  0  0  0  0  0
    0.4582  -54.1432  -25.5707 C   0  0  0  0  0  0  0  0  0  0  0  0
   -0.1210  -53.5433  -26.8150 C   0  0  0  0  0  0  0  0  0  0  0  0
   -1.3565  -52.9483  -26.8578 C   0  0  0  0  0  0  0  0  0  0  0  0
   -1.8452  -52.4023  -28.0506 C   0  0  0  0  0  0  0  0  0  0  0  0
   -1.0968  -52.4501  -29.2078 C   0  0  0  0  0  0  0  0  0  0  0  0
    0.1503  -53.0448  -29.1873 C   0  0  0  0  0  0  0  0  0  0  0  0
    0.6056  -53.5707  -28.0110 C   0  0  0  0  0  0  0  0  0  0  0  0
    2.5151  -51.7549  -25.3510 C   0  0  0  0  0  0  0  0  0  0  0  0
    3.7458  -52.6287  -25.1916 C   0  0  0  0  0  0  0  0  0  0  0  0
    4.8165  -51.7792  -24.4977 C   0  0  0  0  0  0  0  0  0  0  0  0
    6.0830  -52.2912  -24.7519 O   0  0  0  0  0  0  0  0  0  0  0  0
    6.5059  -51.7348  -25.4490 H   0  0  0  0  0  0  0  0  0  0  0  0
 10  1  1  0  0  0
  1  2  2  0  0  0
  2  3  1  0  0  0
  3  4  2  0  0  0
  4  5  1  0  0  0
  5  6  2  0  0  0
  6  7  1  0  0  0
  7  8  2  0  0  0
  8  9  1  0  0  0
  9 17  1  0  0  0
 17 18  1  0  0  0
 18 19  1  0  0  0
 19 20  1  0  0  0
 10 11  1  0  0  0
 11 12  2  0  0  0
 12 13  1  0  0  0
 13 14  2  0  0  0
 14 15  1  0  0  0
 15 16  2  0  0  0
  9  1  1  0  0  0
 16 11  1  0  0  0
  8  3  1  0  0  0
 20 21  1  0  0  0
M  END
> <minimizedAffinity>
-7.07962

> <CNNscore>
0.5307524800

> <CNNaffinity>
5.5410971642

> <CNN_VS>
2.9409511089

> <CNNaffinity_variance>
0.1810841262

$$$$
[H]OC([H])([H])C([H])([H])C([H])([H])n1c(C([H])([H])c2c([H])c([H])c([H])c([H])c2[H])nc2c([H])c([H])c([H])c([H])c21


 21 23  0  0  0  0  0  0  0  0999 V2000
    1.2045  -53.4227  -24.8222 C   0  0  0  0  0  0  0  0  0  0  0  0
    2.4729  -53.4131  -25.2826 N   0  0  0  0  0  0  0  0  0  0  0  0
    3.2379  -52.6495  -24.5176 C   0  0  0  0  0  0  0  0  0  0  0  0
    4.5772  -52.3537  -24.6110 C   0  0  0  0  0  0  0  0  0  0  0  0
    5.1364  -51.5244  -23.6791 C   0  0  0  0  0  0  0  0  0  0  0  0
    4.3444  -51.0064  -22.6705 C   0  0  0  0  0  0  0  0  0  0  0  0
    2.9888  -51.3140  -22.5873 C   0  0  0  0  0  0  0  0  0  0  0  0
    2.4208  -52.1501  -23.5254 C   0  0  0  0  0  0  0  0  0  0  0  0
    1.1666  -52.6404  -23.7314 N   0  0  0  0  0  0  0  0  0  0  0  0
    0.1298  -54.1972  -25.4736 C   0  0  0  0  0  0  0  0  0  0  0  0
   -0.2546  -53.5864  -26.7862 C   0  0  0  0  0  0  0  0  0  0  0  0
   -1.3801  -52.8208  -26.9580 C   0  0  0  0  0  0  0  0  0  0  0  0
   -1.6874  -52.2737  -28.2094 C   0  0  0  0  0  0  0  0  0  0  0  0
   -0.8669  -52.4916  -29.2959 C   0  0  0  0  0  0  0  0  0  0  0  0
    0.2718  -53.2597  -29.1454 C   0  0  0  0  0  0  0  0  0  0  0  0
    0.5505  -53.7830  -27.9141 C   0  0  0  0  0  0  0  0  0  0  0  0
    0.0291  -52.3583  -22.9063 C   0  0  0  0  0  0  0  0  0  0  0  0
    0.0431  -53.1769  -21.6282 C   0  0  0  0  0  0  0  0  0  0  0  0
   -1.0008  -54.2874  -21.7913 C   0  0  0  0  0  0  0  0  0  0  0  0
   -1.6981  -54.4768  -20.6044 O   0  0  0  0  0  0  0  0  0  0  0  0
   -2.5771  -54.0357  -20.6899 H   0  0  0  0  0  0  0  0  0  0  0  0
 10  1  1  0  0  0
  1  2  2  0  0  0
  2  3  1  0  0  0
  3  4  2  0  0  0
  4  5  1  0  0  0
  5  6  2  0  0  0
  6  7  1  0  0  0
  7  8  2  0  0  0
  8  9  1  0  0  0
  9 17  1  0  0  0
 17 18  1  0  0  0
 18 19  1  0  0  0
 19 20  1  0  0  0
 10 11  1  0  0  0
 11 12  2  0  0  0
 12 13  1  0  0  0
 13 14  2  0  0  0
 14 15  1  0  0  0
 15 16  2  0  0  0
  9  1  1  0  0  0
 16 11  1  0  0  0
  8  3  1  0  0  0
 20 21  1  0  0  0
M  END
> <minimizedAffinity>
-7.12968

> <CNNscore>
0.4374814630

> <CNNaffinity>
5.4776206017

> <CNN_VS>
2.3963575363

> <CNNaffinity_variance>
0.2832301259

$$$$
[H]OC([H])([H])C([H])([H])C([H])([H])n1c(C([H])([H])c2c([H])c([H])c([H])c([H])c2[H])nc2c([H])c([H])c([H])c([H])c21


 21 23  0  0  0  0  0  0  0  0999 V2000
    1.2777  -52.4937  -24.5104 C   0  0  0  0  0  0  0  0  0  0  0  0
    2.2111  -51.5344  -24.6820 N   0  0  0  0  0  0  0  0  0  0  0  0
    2.1251  -50.6269  -23.7216 C   0  0  0  0  0  0  0  0  0  0  0  0
    2.8660  -49.4899  -23.5019 C   0  0  0  0  0  0  0  0  0  0  0  0
    2.5710  -48.7088  -22.4195 C   0  0  0  0  0  0  0  0  0  0  0  0
    1.5395  -49.0803  -21.5765 C   0  0  0  0  0  0  0  0  0  0  0  0
    0.7965  -50.2347  -21.8103 C   0  0  0  0  0  0  0  0  0  0  0  0
    1.0908  -51.0254  -22.9011 C   0  0  0  0  0  0  0  0  0  0  0  0
    0.5796  -52.1827  -23.4062 N   0  0  0  0  0  0  0  0  0  0  0  0
    1.1417  -53.6418  -25.4284 C   0  0  0  0  0  0  0  0  0  0  0  0
    0.3885  -53.2567  -26.6645 C   0  0  0  0  0  0  0  0  0  0  0  0
    0.9136  -53.3612  -27.9277 C   0  0  0  0  0  0  0  0  0  0  0  0
    0.1607  -52.9874  -29.0472 C   0  0  0  0  0  0  0  0  0  0  0  0
   -1.1238  -52.5065  -28.9057 C   0  0  0  0  0  0  0  0  0  0  0  0
   -1.6723  -52.3929  -27.6425 C   0  0  0  0  0  0  0  0  0  0  0  0
   -0.9178  -52.7640  -26.5653 C   0  0  0  0  0  0  0  0  0  0  0  0
   -0.5078  -52.9193  -22.8322 C   0  0  0  0  0  0  0  0  0  0  0  0
   -0.0239  -53.9410  -21.8194 C   0  0  0  0  0  0  0  0  0  0  0  0
   -0.6006  -53.5363  -20.4582 C   0  0  0  0  0  0  0  0  0  0  0  0
   -1.7378  -54.2815  -20.1713 O   0  0  0  0  0  0  0  0  0  0  0  0
   -1.4883  -54.9897  -19.5305 H   0  0  0  0  0  0  0  0  0  0  0  0
 10  1  1  0  0  0
  1  2  2  0  0  0
  2  3  1  0  0  0
  3  4  2  0  0  0
  4  5  1  0  0  0
  5  6  2  0  0  0
  6  7  1  0  0  0
  7  8  2  0  0  0
  8  9  1  0  0  0
  9 17  1  0  0  0
 17 18  1  0  0  0
 18 19  1  0  0  0
 19 20  1  0  0  0
 10 11  1  0  0  0
 11 12  2  0  0  0
 12 13  1  0  0  0
 13 14  2  0  0  0
 14 15  1  0  0  0
 15 16  2  0  0  0
  9  1  1  0  0  0
 16 11  1  0  0  0
  8  3  1  0  0  0
 20 21  1  0  0  0
M  END
> <minimizedAffinity>
-6.96472

> <CNNscore>
0.4297136962

> <CNNaffinity>
5.3482275009

> <CNN_VS>
2.2982065678

> <CNNaffinity_variance>
0.2080861032

$$$$
[H]OC([H])([H])C([H])([H])C([H])([H])n1c(C([H])([H])c2c([H])c([H])c([H])c([H])c2[H])nc2c([H])c([H])c([H])c([H])c21


 21 23  0  0  0  0  0  0  0  0999 V2000
    1.6476  -53.0331  -25.4850 C   0  0  0  0  0  0  0  0  0  0  0  0
    1.8574  -53.1892  -26.8088 N   0  0  0  0  0  0  0  0  0  0  0  0
    0.7308  -53.0094  -27.4810 C   0  0  0  0  0  0  0  0  0  0  0  0
    0.4801  -53.0712  -28.8312 C   0  0  0  0  0  0  0  0  0  0  0  0
   -0.7916  -52.8420  -29.2775 C   0  0  0  0  0  0  0  0  0  0  0  0
   -1.7893  -52.5551  -28.3637 C   0  0  0  0  0  0  0  0  0  0  0  0
   -1.5220  -52.4956  -26.9983 C   0  0  0  0  0  0  0  0  0  0  0  0
   -0.2405  -52.7262  -26.5440 C   0  0  0  0  0  0  0  0  0  0  0  0
    0.3469  -52.7453  -25.3150 N   0  0  0  0  0  0  0  0  0  0  0  0
    2.7287  -53.1682  -24.4889 C   0  0  0  0  0  0  0  0  0  0  0  0
    3.5690  -51.9294  -24.4348 C   0  0  0  0  0  0  0  0  0  0  0  0
    3.0448  -50.6627  -24.4910 C   0  0  0  0  0  0  0  0  0  0  0  0
    3.8804  -49.5410  -24.4339 C   0  0  0  0  0  0  0  0  0  0  0  0
    5.2472  -49.6838  -24.3201 C   0  0  0  0  0  0  0  0  0  0  0  0
    5.7964  -50.9504  -24.2619 C   0  0  0  0  0  0  0  0  0  0  0  0
    4.9603  -52.0298  -24.3195 C   0  0  0  0  0  0  0  0  0  0  0  0
   -0.3300  -52.4913  -24.0774 C   0  0  0  0  0  0  0  0  0  0  0  0
   -0.2303  -53.6713  -23.1281 C   0  0  0  0  0  0  0  0  0  0  0  0
   -1.1227  -54.7823  -23.6927 C   0  0  0  0  0  0  0  0  0  0  0  0
   -1.8545  -55.3819  -22.6750 O   0  0  0  0  0  0  0  0  0  0  0  0
   -2.7744  -55.0250  -22.7058 H   0  0  0  0  0  0  0  0  0  0  0  0
 10  1  1  0  0  0
  1  2  2  0  0  0
  2  3  1  0  0  0
  3  4  2  0  0  0
  4  5  1  0  0  0
  5  6  2  0  0  0
  6  7  1  0  0  0
  7  8  2  0  0  0
  8  9  1  0  0  0
  9 17  1  0  0  0
 17 18  1  0  0  0
 18 19  1  0  0  0
 19 20  1  0  0  0
 10 11  1  0  0  0
 11 12  2  0  0  0
 12 13  1  0  0  0
 13 14  2  0  0  0
 14 15  1  0  0  0
 15 16  2  0  0  0
  9  1  1  0  0  0
 16 11  1  0  0  0
  8  3  1  0  0  0
 20 21  1  0  0  0
M  END
> <minimizedAffinity>
-6.86185

> <CNNscore>
0.4251194894

> <CNNaffinity>
5.4094724655

> <CNN_VS>
2.2996721268

> <CNNaffinity_variance>
0.3893235326

$$$$
[H]OC([H])([H])C([H])([H])C([H])([H])n1c(C([H])([H])c2c([H])c([H])c([H])c([H])c2[H])nc2c([H])c([H])c([H])c([H])c21


 21 23  0  0  0  0  0  0  0  0999 V2000
    0.6542  -51.9309  -24.8954 C   0  0  0  0  0  0  0  0  0  0  0  0
   -0.5129  -51.7408  -25.5455 N   0  0  0  0  0  0  0  0  0  0  0  0
   -0.4301  -52.1909  -26.7880 C   0  0  0  0  0  0  0  0  0  0  0  0
   -1.3659  -52.2028  -27.7950 C   0  0  0  0  0  0  0  0  0  0  0  0
   -1.0240  -52.7336  -29.0075 C   0  0  0  0  0  0  0  0  0  0  0  0
    0.2489  -53.2428  -29.1898 C   0  0  0  0  0  0  0  0  0  0  0  0
    1.1877  -53.2247  -28.1614 C   0  0  0  0  0  0  0  0  0  0  0  0
    0.8467  -52.6901  -26.9368 C   0  0  0  0  0  0  0  0  0  0  0  0
    1.5017  -52.5201  -25.7544 N   0  0  0  0  0  0  0  0  0  0  0  0
    0.8526  -51.5322  -23.4879 C   0  0  0  0  0  0  0  0  0  0  0  0
    0.1331  -52.4609  -22.5586 C   0  0  0  0  0  0  0  0  0  0  0  0
   -0.2001  -53.7492  -22.8927 C   0  0  0  0  0  0  0  0  0  0  0  0
   -0.8715  -54.5724  -21.9810 C   0  0  0  0  0  0  0  0  0  0  0  0
   -1.2126  -54.1076  -20.7284 C   0  0  0  0  0  0  0  0  0  0  0  0
   -0.8867  -52.8131  -20.3711 C   0  0  0  0  0  0  0  0  0  0  0  0
   -0.2314  -52.0289  -21.2782 C   0  0  0  0  0  0  0  0  0  0  0  0
    2.8552  -52.9178  -25.5011 C   0  0  0  0  0  0  0  0  0  0  0  0
    3.7747  -51.7203  -25.3455 C   0  0  0  0  0  0  0  0  0  0  0  0
    4.8157  -52.0850  -24.2812 C   0  0  0  0  0  0  0  0  0  0  0  0
    6.0192  -52.4377  -24.8794 O   0  0  0  0  0  0  0  0  0  0  0  0
    6.6364  -51.6708  -24.8053 H   0  0  0  0  0  0  0  0  0  0  0  0
 10  1  1  0  0  0
  1  2  2  0  0  0
  2  3  1  0  0  0
  3  4  2  0  0  0
  4  5  1  0  0  0
  5  6  2  0  0  0
  6  7  1  0  0  0
  7  8  2  0  0  0
  8  9  1  0  0  0
  9 17  1  0  0  0
 17 18  1  0  0  0
 18 19  1  0  0  0
 19 20  1  0  0  0
 10 11  1  0  0  0
 11 12  2  0  0  0
 12 13  1  0  0  0
 13 14  2  0  0  0
 14 15  1  0  0  0
 15 16  2  0  0  0
  9  1  1  0  0  0
 16 11  1  0  0  0
  8  3  1  0  0  0
 20 21  1  0  0  0
M  END
> <minimizedAffinity>
-7.37874

> <CNNscore>
0.4118213356

> <CNNaffinity>
5.2022657394

> <CNN_VS>
2.1424040794

> <CNNaffinity_variance>
0.6282032728

$$$$
[H]c1nn([H])c([H])c1-c1c([H])c([H])c(C(=O)N2C([H])([H])C([H])([H])C([H])(c3c([H])c(F)c([H])c([H])c3F)C([H])([H])C2([H])[H])c([H])c1OC([H])([H])[H]


 30 33  0  0  0  0  0  0  0  0999 V2000
   -0.3563  -53.4084  -21.0787 C   0  0  0  0  0  0  0  0  0  0  0  0
   -0.8068  -54.6504  -21.0466 O   0  0  0  0  0  0  0  0  0  0  0  0
   -0.0440  -53.0004  -22.3680 N   0  0  0  0  0  0  0  0  0  0  0  0
   -0.2549  -53.9661  -23.4867 C   0  0  0  0  0  0  0  0  0  0  0  0
   -1.1933  -53.2159  -24.4349 C   0  0  0  0  0  0  0  0  0  0  0  0
   -0.4254  -52.1220  -25.1318 C   0  0  0  0  0  0  0  0  0  0  0  0
    0.7877  -51.7591  -24.3014 C   0  0  0  0  0  0  0  0  0  0  0  0
    0.4716  -51.7484  -22.7991 C   0  0  0  0  0  0  0  0  0  0  0  0
    0.0771  -52.5235  -26.4718 C   0  0  0  0  0  0  0  0  0  0  0  0
   -0.6640  -52.4423  -27.6150 C   0  0  0  0  0  0  0  0  0  0  0  0
   -0.0896  -52.8546  -28.8011 C   0  0  0  0  0  0  0  0  0  0  0  0
   -0.8227  -52.7746  -29.9314 F   0  0  0  0  0  0  0  0  0  0  0  0
    1.1877  -53.3413  -28.8865 C   0  0  0  0  0  0  0  0  0  0  0  0
    1.9503  -53.4299  -27.7385 C   0  0  0  0  0  0  0  0  0  0  0  0
    1.3635  -53.0107  -26.5395 C   0  0  0  0  0  0  0  0  0  0  0  0
    2.1731  -53.1202  -25.4571 F   0  0  0  0  0  0  0  0  0  0  0  0
    0.5263  -51.0450  -18.2269 C   0  0  0  0  0  0  0  0  0  0  0  0
    0.5171  -51.6525  -19.4943 C   0  0  0  0  0  0  0  0  0  0  0  0
   -0.2699  -52.7151  -19.8183 C   0  0  0  0  0  0  0  0  0  0  0  0
   -1.0928  -53.1714  -18.7653 C   0  0  0  0  0  0  0  0  0  0  0  0
   -1.0877  -52.5832  -17.5286 C   0  0  0  0  0  0  0  0  0  0  0  0
   -0.2839  -51.5117  -17.2275 C   0  0  0  0  0  0  0  0  0  0  0  0
   -0.2736  -50.8780  -15.9147 C   0  0  0  0  0  0  0  0  0  0  0  0
    0.5013  -51.2667  -14.8339 C   0  0  0  0  0  0  0  0  0  0  0  0
    0.2521  -50.4563  -13.7861 N   0  0  0  0  0  0  0  0  0  0  0  0
   -0.6535  -49.5756  -14.1818 N   0  0  0  0  0  0  0  0  0  0  0  0
   -0.9932  -49.7998  -15.4592 C   0  0  0  0  0  0  0  0  0  0  0  0
   -1.0275  -48.8257  -13.5585 H   0  0  0  0  0  0  0  0  0  0  0  0
    1.7849  -49.0443  -18.9281 C   0  0  0  0  0  0  0  0  0  0  0  0
    1.3545  -49.9689  -17.9764 O   0  0  0  0  0  0  0  0  0  0  0  0
 29 30  1  0  0  0
 30 17  1  0  0  0
 17 18  2  0  0  0
 18 19  1  0  0  0
 19 20  2  0  0  0
 20 21  1  0  0  0
 21 22  2  0  0  0
 22 23  1  0  0  0
 23 24  1  0  0  0
 24 25  2  0  0  0
 25 26  1  0  0  0
 26 27  1  0  0  0
 19  1  1  0  0  0
  1  2  2  0  0  0
  1  3  1  0  0  0
  3  4  1  0  0  0
  4  5  1  0  0  0
  5  6  1  0  0  0
  6  7  1  0  0  0
  7  8  1  0  0  0
  6  9  1  0  0  0
  9 10  2  0  0  0
 10 11  1  0  0  0
 11 12  1  0  0  0
 11 13  2  0  0  0
 13 14  1  0  0  0
 14 15  2  0  0  0
 15 16  1  0  0  0
 22 17  1  0  0  0
 27 23  2  0  0  0
  8  3  1  0  0  0
 15  9  1  0  0  0
 26 28  1  0  0  0
M  END
> <minimizedAffinity>
-8.42992

> <CNNscore>
0.5227444172

> <CNNaffinity>
6.7125306129

> <CNN_VS>
3.5089378357

> <CNNaffinity_variance>
0.2727032304

$$$$
[H]c1nn([H])c([H])c1-c1c([H])c([H])c(C(=O)N2C([H])([H])C([H])([H])C([H])(c3c([H])c(F)c([H])c([H])c3F)C([H])([H])C2([H])[H])c([H])c1OC([H])([H])[H]


 30 33  0  0  0  0  0  0  0  0999 V2000
   -0.2950  -53.3914  -21.1077 C   0  0  0  0  0  0  0  0  0  0  0  0
   -0.7125  -54.6441  -21.0534 O   0  0  0  0  0  0  0  0  0  0  0  0
   -0.0503  -52.9796  -22.4103 N   0  0  0  0  0  0  0  0  0  0  0  0
   -0.2863  -53.9534  -23.5168 C   0  0  0  0  0  0  0  0  0  0  0  0
   -1.2842  -53.2294  -24.4238 C   0  0  0  0  0  0  0  0  0  0  0  0
   -0.5753  -52.1189  -25.1560 C   0  0  0  0  0  0  0  0  0  0  0  0
    0.6639  -51.7236  -24.3809 C   0  0  0  0  0  0  0  0  0  0  0  0
    0.4144  -51.7164  -22.8660 C   0  0  0  0  0  0  0  0  0  0  0  0
   -0.1229  -52.5116  -26.5162 C   0  0  0  0  0  0  0  0  0  0  0  0
    1.1705  -52.8183  -26.8260 C   0  0  0  0  0  0  0  0  0  0  0  0
    1.4705  -53.1608  -28.1297 C   0  0  0  0  0  0  0  0  0  0  0  0
    2.7495  -53.4636  -28.4359 F   0  0  0  0  0  0  0  0  0  0  0  0
    0.5335  -53.2075  -29.1274 C   0  0  0  0  0  0  0  0  0  0  0  0
   -0.7796  -52.8997  -28.8300 C   0  0  0  0  0  0  0  0  0  0  0  0
   -1.0781  -52.5536  -27.5075 C   0  0  0  0  0  0  0  0  0  0  0  0
   -2.3864  -52.2713  -27.2893 F   0  0  0  0  0  0  0  0  0  0  0  0
   -0.7157  -52.1069  -17.5480 C   0  0  0  0  0  0  0  0  0  0  0  0
   -0.9207  -52.8430  -18.7277 C   0  0  0  0  0  0  0  0  0  0  0  0
   -0.1701  -52.6925  -19.8535 C   0  0  0  0  0  0  0  0  0  0  0  0
    0.8503  -51.7223  -19.7464 C   0  0  0  0  0  0  0  0  0  0  0  0
    1.0544  -51.0023  -18.5995 C   0  0  0  0  0  0  0  0  0  0  0  0
    0.2826  -51.1735  -17.4770 C   0  0  0  0  0  0  0  0  0  0  0  0
    0.4941  -50.4133  -16.2512 C   0  0  0  0  0  0  0  0  0  0  0  0
   -0.0820  -49.1904  -15.9471 C   0  0  0  0  0  0  0  0  0  0  0  0
    0.3388  -48.7835  -14.7331 N   0  0  0  0  0  0  0  0  0  0  0  0
    1.1585  -49.7154  -14.2726 N   0  0  0  0  0  0  0  0  0  0  0  0
    1.2755  -50.7123  -15.1613 C   0  0  0  0  0  0  0  0  0  0  0  0
    1.6298  -49.6490  -13.3429 H   0  0  0  0  0  0  0  0  0  0  0  0
   -2.9136  -52.3949  -16.4688 C   0  0  0  0  0  0  0  0  0  0  0  0
   -1.5210  -52.3183  -16.4465 O   0  0  0  0  0  0  0  0  0  0  0  0
 29 30  1  0  0  0
 30 17  1  0  0  0
 17 18  2  0  0  0
 18 19  1  0  0  0
 19 20  2  0  0  0
 20 21  1  0  0  0
 21 22  2  0  0  0
 22 23  1  0  0  0
 23 24  1  0  0  0
 24 25  2  0  0  0
 25 26  1  0  0  0
 26 27  1  0  0  0
 19  1  1  0  0  0
  1  2  2  0  0  0
  1  3  1  0  0  0
  3  4  1  0  0  0
  4  5  1  0  0  0
  5  6  1  0  0  0
  6  7  1  0  0  0
  7  8  1  0  0  0
  6  9  1  0  0  0
  9 10  2  0  0  0
 10 11  1  0  0  0
 11 12  1  0  0  0
 11 13  2  0  0  0
 13 14  1  0  0  0
 14 15  2  0  0  0
 15 16  1  0  0  0
 22 17  1  0  0  0
 27 23  2  0  0  0
  8  3  1  0  0  0
 15  9  1  0  0  0
 26 28  1  0  0  0
M  END
> <minimizedAffinity>
-8.66175

> <CNNscore>
0.5165454745

> <CNNaffinity>
6.7386116982

> <CNN_VS>
3.4807994366

> <CNNaffinity_variance>
0.2663056552

$$$$
[H]c1nn([H])c([H])c1-c1c([H])c([H])c(C(=O)N2C([H])([H])C([H])([H])C([H])(c3c([H])c(F)c([H])c([H])c3F)C([H])([H])C2([H])[H])c([H])c1OC([H])([H])[H]


 30 33  0  0  0  0  0  0  0  0999 V2000
   -0.3251  -53.1647  -20.4421 C   0  0  0  0  0  0  0  0  0  0  0  0
   -0.8227  -54.3889  -20.4489 O   0  0  0  0  0  0  0  0  0  0  0  0
    0.0828  -52.7608  -21.7057 N   0  0  0  0  0  0  0  0  0  0  0  0
   -0.0930  -53.7108  -22.8437 C   0  0  0  0  0  0  0  0  0  0  0  0
   -0.9413  -52.9199  -23.8424 C   0  0  0  0  0  0  0  0  0  0  0  0
   -0.0907  -51.8514  -24.4804 C   0  0  0  0  0  0  0  0  0  0  0  0
    1.0803  -51.5397  -23.5725 C   0  0  0  0  0  0  0  0  0  0  0  0
    0.6708  -51.5264  -22.0929 C   0  0  0  0  0  0  0  0  0  0  0  0
    0.4798  -52.2632  -25.7896 C   0  0  0  0  0  0  0  0  0  0  0  0
    1.8004  -52.5467  -25.9857 C   0  0  0  0  0  0  0  0  0  0  0  0
    2.2133  -52.9105  -27.2522 C   0  0  0  0  0  0  0  0  0  0  0  0
    3.5192  -53.1904  -27.4461 F   0  0  0  0  0  0  0  0  0  0  0  0
    1.3624  -53.0005  -28.3215 C   0  0  0  0  0  0  0  0  0  0  0  0
    0.0231  -52.7166  -28.1393 C   0  0  0  0  0  0  0  0  0  0  0  0
   -0.3899  -52.3488  -26.8541 C   0  0  0  0  0  0  0  0  0  0  0  0
   -1.7174  -52.0919  -26.7498 F   0  0  0  0  0  0  0  0  0  0  0  0
    0.4182  -50.8131  -17.5411 C   0  0  0  0  0  0  0  0  0  0  0  0
    0.4610  -51.4073  -18.8141 C   0  0  0  0  0  0  0  0  0  0  0  0
   -0.2925  -52.4830  -19.1728 C   0  0  0  0  0  0  0  0  0  0  0  0
   -1.1374  -52.9677  -18.1504 C   0  0  0  0  0  0  0  0  0  0  0  0
   -1.1831  -52.3925  -16.9084 C   0  0  0  0  0  0  0  0  0  0  0  0
   -0.4121  -51.3074  -16.5720 C   0  0  0  0  0  0  0  0  0  0  0  0
   -0.4559  -50.6874  -15.2534 C   0  0  0  0  0  0  0  0  0  0  0  0
   -1.3082  -49.6657  -14.8668 C   0  0  0  0  0  0  0  0  0  0  0  0
   -1.0691  -49.3418  -13.5806 N   0  0  0  0  0  0  0  0  0  0  0  0
   -0.0948  -50.1304  -13.1550 N   0  0  0  0  0  0  0  0  0  0  0  0
    0.2990  -50.9542  -14.1368 C   0  0  0  0  0  0  0  0  0  0  0  0
    0.2879  -50.0882  -12.1842 H   0  0  0  0  0  0  0  0  0  0  0  0
    1.9995  -49.0323  -18.1786 C   0  0  0  0  0  0  0  0  0  0  0  0
    1.2149  -49.7223  -17.2546 O   0  0  0  0  0  0  0  0  0  0  0  0
 29 30  1  0  0  0
 30 17  1  0  0  0
 17 18  2  0  0  0
 18 19  1  0  0  0
 19 20  2  0  0  0
 20 21  1  0  0  0
 21 22  2  0  0  0
 22 23  1  0  0  0
 23 24  1  0  0  0
 24 25  2  0  0  0
 25 26  1  0  0  0
 26 27  1  0  0  0
 19  1  1  0  0  0
  1  2  2  0  0  0
  1  3  1  0  0  0
  3  4  1  0  0  0
  4  5  1  0  0  0
  5  6  1  0  0  0
  6  7  1  0  0  0
  7  8  1  0  0  0
  6  9  1  0  0  0
  9 10  2  0  0  0
 10 11  1  0  0  0
 11 12  1  0  0  0
 11 13  2  0  0  0
 13 14  1  0  0  0
 14 15  2  0  0  0
 15 16  1  0  0  0
 22 17  1  0  0  0
 27 23  2  0  0  0
  8  3  1  0  0  0
 15  9  1  0  0  0
 26 28  1  0  0  0
M  END
> <minimizedAffinity>
-8.08822

> <CNNscore>
0.4450566173

> <CNNaffinity>
6.5142912865

> <CNN_VS>
2.8992283344

> <CNNaffinity_variance>
0.3661334515

$$$$
[H]c1nn([H])c([H])c1-c1c([H])c([H])c(C(=O)N2C([H])([H])C([H])([H])C([H])(c3c([H])c(F)c([H])c([H])c3F)C([H])([H])C2([H])[H])c([H])c1OC([H])([H])[H]


 30 33  0  0  0  0  0  0  0  0999 V2000
   -0.6679  -53.2699  -20.5243 C   0  0  0  0  0  0  0  0  0  0  0  0
   -1.3764  -54.3680  -20.7210 O   0  0  0  0  0  0  0  0  0  0  0  0
   -0.0052  -52.8643  -21.6743 N   0  0  0  0  0  0  0  0  0  0  0  0
   -0.1787  -53.6761  -22.9150 C   0  0  0  0  0  0  0  0  0  0  0  0
   -0.7043  -52.6630  -23.9349 C   0  0  0  0  0  0  0  0  0  0  0  0
    0.4161  -51.7404  -24.3417 C   0  0  0  0  0  0  0  0  0  0  0  0
    1.4728  -51.7326  -23.2573 C   0  0  0  0  0  0  0  0  0  0  0  0
    0.8529  -51.7457  -21.8528 C   0  0  0  0  0  0  0  0  0  0  0  0
    1.0928  -52.1610  -25.5964 C   0  0  0  0  0  0  0  0  0  0  0  0
    0.7044  -53.2347  -26.3441 C   0  0  0  0  0  0  0  0  0  0  0  0
    1.4189  -53.5321  -27.4878 C   0  0  0  0  0  0  0  0  0  0  0  0
    1.0349  -54.5941  -28.2267 F   0  0  0  0  0  0  0  0  0  0  0  0
    2.4987  -52.8023  -27.9084 C   0  0  0  0  0  0  0  0  0  0  0  0
    2.9043  -51.7129  -27.1626 C   0  0  0  0  0  0  0  0  0  0  0  0
    2.1767  -51.4160  -26.0050 C   0  0  0  0  0  0  0  0  0  0  0  0
    2.6281  -50.3307  -25.3286 F   0  0  0  0  0  0  0  0  0  0  0  0
   -1.5760  -52.2887  -16.9591 C   0  0  0  0  0  0  0  0  0  0  0  0
   -1.6343  -52.8942  -18.2261 C   0  0  0  0  0  0  0  0  0  0  0  0
   -0.7030  -52.7017  -19.2004 C   0  0  0  0  0  0  0  0  0  0  0  0
    0.3473  -51.8306  -18.8366 C   0  0  0  0  0  0  0  0  0  0  0  0
    0.4089  -51.2379  -17.6035 C   0  0  0  0  0  0  0  0  0  0  0  0
   -0.5440  -51.4490  -16.6380 C   0  0  0  0  0  0  0  0  0  0  0  0
   -0.4852  -50.8243  -15.3221 C   0  0  0  0  0  0  0  0  0  0  0  0
    0.2077  -51.3103  -14.2252 C   0  0  0  0  0  0  0  0  0  0  0  0
    0.0380  -50.4769  -13.1796 N   0  0  0  0  0  0  0  0  0  0  0  0
   -0.7388  -49.4877  -13.5922 N   0  0  0  0  0  0  0  0  0  0  0  0
   -1.0732  -49.6644  -14.8784 C   0  0  0  0  0  0  0  0  0  0  0  0
   -1.0296  -48.6976  -12.9742 H   0  0  0  0  0  0  0  0  0  0  0  0
   -3.9332  -52.5181  -16.2741 C   0  0  0  0  0  0  0  0  0  0  0  0
   -2.5611  -52.5351  -16.0235 O   0  0  0  0  0  0  0  0  0  0  0  0
 29 30  1  0  0  0
 30 17  1  0  0  0
 17 18  2  0  0  0
 18 19  1  0  0  0
 19 20  2  0  0  0
 20 21  1  0  0  0
 21 22  2  0  0  0
 22 23  1  0  0  0
 23 24  1  0  0  0
 24 25  2  0  0  0
 25 26  1  0  0  0
 26 27  1  0  0  0
 19  1  1  0  0  0
  1  2  2  0  0  0
  1  3  1  0  0  0
  3  4  1  0  0  0
  4  5  1  0  0  0
  5  6  1  0  0  0
  6  7  1  0  0  0
  7  8  1  0  0  0
  6  9  1  0  0  0
  9 10  2  0  0  0
 10 11  1  0  0  0
 11 12  1  0  0  0
 11 13  2  0  0  0
 13 14  1  0  0  0
 14 15  2  0  0  0
 15 16  1  0  0  0
 22 17  1  0  0  0
 27 23  2  0  0  0
  8  3  1  0  0  0
 15  9  1  0  0  0
 26 28  1  0  0  0
M  END
> <minimizedAffinity>
-7.78526

> <CNNscore>
0.4189515114

> <CNNaffinity>
6.4326477051

> <CNN_VS>
2.6949675083

> <CNNaffinity_variance>
0.2356261015

$$$$
[H]c1nn([H])c([H])c1-c1c([H])c([H])c(C(=O)N2C([H])([H])C([H])([H])C([H])(c3c([H])c(F)c([H])c([H])c3F)C([H])([H])C2([H])[H])c([H])c1OC([H])([H])[H]


 30 33  0  0  0  0  0  0  0  0999 V2000
    0.0091  -53.3714  -21.0754 C   0  0  0  0  0  0  0  0  0  0  0  0
   -0.3197  -54.6484  -20.9884 O   0  0  0  0  0  0  0  0  0  0  0  0
    0.1479  -52.9575  -22.3928 N   0  0  0  0  0  0  0  0  0  0  0  0
   -0.0877  -53.9561  -23.4771 C   0  0  0  0  0  0  0  0  0  0  0  0
   -1.1840  -53.3093  -24.3272 C   0  0  0  0  0  0  0  0  0  0  0  0
   -0.5957  -52.1616  -25.1074 C   0  0  0  0  0  0  0  0  0  0  0  0
    0.6581  -51.6770  -24.4104 C   0  0  0  0  0  0  0  0  0  0  0  0
    0.4991  -51.6709  -22.8834 C   0  0  0  0  0  0  0  0  0  0  0  0
   -0.1995  -52.5373  -26.4898 C   0  0  0  0  0  0  0  0  0  0  0  0
    1.0639  -52.9167  -26.8398 C   0  0  0  0  0  0  0  0  0  0  0  0
    1.3125  -53.2342  -28.1606 C   0  0  0  0  0  0  0  0  0  0  0  0
    2.5619  -53.6089  -28.5066 F   0  0  0  0  0  0  0  0  0  0  0  0
    0.3531  -53.1867  -29.1367 C   0  0  0  0  0  0  0  0  0  0  0  0
   -0.9302  -52.8044  -28.7985 C   0  0  0  0  0  0  0  0  0  0  0  0
   -1.1767  -52.4840  -27.4590 C   0  0  0  0  0  0  0  0  0  0  0  0
   -2.4586  -52.1248  -27.2008 F   0  0  0  0  0  0  0  0  0  0  0  0
    1.2017  -51.1274  -18.2399 C   0  0  0  0  0  0  0  0  0  0  0  0
    1.1447  -51.7799  -19.4834 C   0  0  0  0  0  0  0  0  0  0  0  0
    0.1611  -52.6531  -19.8353 C   0  0  0  0  0  0  0  0  0  0  0  0
   -0.8174  -52.8590  -18.8382 C   0  0  0  0  0  0  0  0  0  0  0  0
   -0.7666  -52.2258  -17.6249 C   0  0  0  0  0  0  0  0  0  0  0  0
    0.2370  -51.3491  -17.2947 C   0  0  0  0  0  0  0  0  0  0  0  0
    0.2978  -50.6689  -16.0068 C   0  0  0  0  0  0  0  0  0  0  0  0
    0.9265  -51.1459  -14.8680 C   0  0  0  0  0  0  0  0  0  0  0  0
    0.7804  -50.2560  -13.8663 N   0  0  0  0  0  0  0  0  0  0  0  0
    0.0805  -49.2403  -14.3469 N   0  0  0  0  0  0  0  0  0  0  0  0
   -0.2274  -49.4552  -15.6339 C   0  0  0  0  0  0  0  0  0  0  0  0
   -0.1769  -48.4057  -13.7741 H   0  0  0  0  0  0  0  0  0  0  0  0
    3.5795  -50.6046  -17.8507 C   0  0  0  0  0  0  0  0  0  0  0  0
    2.2336  -50.2541  -17.9583 O   0  0  0  0  0  0  0  0  0  0  0  0
 29 30  1  0  0  0
 30 17  1  0  0  0
 17 18  2  0  0  0
 18 19  1  0  0  0
 19 20  2  0  0  0
 20 21  1  0  0  0
 21 22  2  0  0  0
 22 23  1  0  0  0
 23 24  1  0  0  0
 24 25  2  0  0  0
 25 26  1  0  0  0
 26 27  1  0  0  0
 19  1  1  0  0  0
  1  2  2  0  0  0
  1  3  1  0  0  0
  3  4  1  0  0  0
  4  5  1  0  0  0
  5  6  1  0  0  0
  6  7  1  0  0  0
  7  8  1  0  0  0
  6  9  1  0  0  0
  9 10  2  0  0  0
 10 11  1  0  0  0
 11 12  1  0  0  0
 11 13  2  0  0  0
 13 14  1  0  0  0
 14 15  2  0  0  0
 15 16  1  0  0  0
 22 17  1  0  0  0
 27 23  2  0  0  0
  8  3  1  0  0  0
 15  9  1  0  0  0
 26 28  1  0  0  0
M  END
> <minimizedAffinity>
-8.52993

> <CNNscore>
0.4075333774

> <CNNaffinity>
6.6254081726

> <CNN_VS>
2.7000749111

> <CNNaffinity_variance>
0.2886856198

$$$$
[H]c1nn([H])c([H])c1-c1c([H])c([H])c(C(=O)N2C([H])([H])C([H])([H])C([H])(c3c([H])c(F)c([H])c([H])c3F)C([H])([H])C2([H])[H])c([H])c1OC([H])([H])[H]


 30 33  0  0  0  0  0  0  0  0999 V2000
    0.5831  -52.9316  -21.3088 C   0  0  0  0  0  0  0  0  0  0  0  0
    0.0712  -54.1272  -21.0742 O   0  0  0  0  0  0  0  0  0  0  0  0
    0.5405  -52.6016  -22.6562 N   0  0  0  0  0  0  0  0  0  0  0  0
   -0.0533  -53.5866  -23.6078 C   0  0  0  0  0  0  0  0  0  0  0  0
   -1.1673  -52.7932  -24.2952 C   0  0  0  0  0  0  0  0  0  0  0  0
   -0.5541  -51.7981  -25.2469 C   0  0  0  0  0  0  0  0  0  0  0  0
    0.8697  -51.5120  -24.8184 C   0  0  0  0  0  0  0  0  0  0  0  0
    1.0007  -51.4169  -23.2917 C   0  0  0  0  0  0  0  0  0  0  0  0
   -0.4891  -52.2924  -26.6471 C   0  0  0  0  0  0  0  0  0  0  0  0
    0.6555  -52.7394  -27.2411 C   0  0  0  0  0  0  0  0  0  0  0  0
    0.5918  -53.1661  -28.5528 C   0  0  0  0  0  0  0  0  0  0  0  0
    1.7238  -53.6076  -29.1401 F   0  0  0  0  0  0  0  0  0  0  0  0
   -0.5641  -53.1625  -29.2873 C   0  0  0  0  0  0  0  0  0  0  0  0
   -1.7308  -52.7129  -28.7006 C   0  0  0  0  0  0  0  0  0  0  0  0
   -1.6606  -52.2819  -27.3713 C   0  0  0  0  0  0  0  0  0  0  0  0
   -2.8445  -51.8616  -26.8607 F   0  0  0  0  0  0  0  0  0  0  0  0
    0.9545  -50.9849  -18.0576 C   0  0  0  0  0  0  0  0  0  0  0  0
    0.3712  -51.6857  -19.1272 C   0  0  0  0  0  0  0  0  0  0  0  0
    1.0790  -52.2016  -20.1695 C   0  0  0  0  0  0  0  0  0  0  0  0
    2.4710  -51.9758  -20.0952 C   0  0  0  0  0  0  0  0  0  0  0  0
    3.0445  -51.2937  -19.0553 C   0  0  0  0  0  0  0  0  0  0  0  0
    2.3075  -50.7832  -18.0156 C   0  0  0  0  0  0  0  0  0  0  0  0
    2.9097  -50.0579  -16.9036 C   0  0  0  0  0  0  0  0  0  0  0  0
    3.1076  -48.6880  -16.8426 C   0  0  0  0  0  0  0  0  0  0  0  0
    3.6887  -48.3684  -15.6692 N   0  0  0  0  0  0  0  0  0  0  0  0
    3.8580  -49.4970  -14.9984 N   0  0  0  0  0  0  0  0  0  0  0  0
    3.4000  -50.5354  -15.7121 C   0  0  0  0  0  0  0  0  0  0  0  0
    4.2915  -49.5344  -14.0490 H   0  0  0  0  0  0  0  0  0  0  0  0
   -0.7707  -51.2295  -16.3133 C   0  0  0  0  0  0  0  0  0  0  0  0
    0.1670  -50.4919  -17.0361 O   0  0  0  0  0  0  0  0  0  0  0  0
 29 30  1  0  0  0
 30 17  1  0  0  0
 17 18  2  0  0  0
 18 19  1  0  0  0
 19 20  2  0  0  0
 20 21  1  0  0  0
 21 22  2  0  0  0
 22 23  1  0  0  0
 23 24  1  0  0  0
 24 25  2  0  0  0
 25 26  1  0  0  0
 26 27  1  0  0  0
 19  1  1  0  0  0
  1  2  2  0  0  0
  1  3  1  0  0  0
  3  4  1  0  0  0
  4  5  1  0  0  0
  5  6  1  0  0  0
  6  7  1  0  0  0
  7  8  1  0  0  0
  6  9  1  0  0  0
  9 10  2  0  0  0
 10 11  1  0  0  0
 11 12  1  0  0  0
 11 13  2  0  0  0
 13 14  1  0  0  0
 14 15  2  0  0  0
 15 16  1  0  0  0
 22 17  1  0  0  0
 27 23  2  0  0  0
  8  3  1  0  0  0
 15  9  1  0  0  0
 26 28  1  0  0  0
M  END
> <minimizedAffinity>
-8.57239

> <CNNscore>
0.2972990870

> <CNNaffinity>
6.3614950180

> <CNN_VS>
1.8912667036

> <CNNaffinity_variance>
0.4281454980

$$$$
[H]c1nn([H])c([H])c1-c1c([H])c([H])c(C(=O)N2C([H])([H])C([H])([H])C([H])(c3c([H])c(F)c([H])c([H])c3F)C([H])([H])C2([H])[H])c([H])c1OC([H])([H])[H]


 30 33  0  0  0  0  0  0  0  0999 V2000
    0.2450  -52.7285  -21.7013 C   0  0  0  0  0  0  0  0  0  0  0  0
    0.0260  -53.9060  -21.1428 O   0  0  0  0  0  0  0  0  0  0  0  0
    0.4346  -51.7303  -20.7558 N   0  0  0  0  0  0  0  0  0  0  0  0
    0.3760  -52.1030  -19.3115 C   0  0  0  0  0  0  0  0  0  0  0  0
    1.7288  -51.6381  -18.7668 C   0  0  0  0  0  0  0  0  0  0  0  0
    1.7397  -50.1332  -18.6818 C   0  0  0  0  0  0  0  0  0  0  0  0
    0.7114  -49.5732  -19.6418 C   0  0  0  0  0  0  0  0  0  0  0  0
    0.6832  -50.3473  -20.9673 C   0  0  0  0  0  0  0  0  0  0  0  0
    1.3882  -49.6219  -17.3311 C   0  0  0  0  0  0  0  0  0  0  0  0
    0.1065  -49.4349  -16.9011 C   0  0  0  0  0  0  0  0  0  0  0  0
   -0.0938  -48.9449  -15.6257 C   0  0  0  0  0  0  0  0  0  0  0  0
   -1.3612  -48.7597  -15.2007 F   0  0  0  0  0  0  0  0  0  0  0  0
    0.9311  -48.6372  -14.7710 C   0  0  0  0  0  0  0  0  0  0  0  0
    2.2338  -48.8207  -15.1914 C   0  0  0  0  0  0  0  0  0  0  0  0
    2.4310  -49.3175  -16.4845 C   0  0  0  0  0  0  0  0  0  0  0  0
    3.7338  -49.4779  -16.8249 F   0  0  0  0  0  0  0  0  0  0  0  0
    0.7679  -51.7967  -25.3560 C   0  0  0  0  0  0  0  0  0  0  0  0
    0.8202  -51.7491  -23.9522 C   0  0  0  0  0  0  0  0  0  0  0  0
    0.2502  -52.6828  -23.1417 C   0  0  0  0  0  0  0  0  0  0  0  0
   -0.4112  -53.7236  -23.8296 C   0  0  0  0  0  0  0  0  0  0  0  0
   -0.4653  -53.7748  -25.1970 C   0  0  0  0  0  0  0  0  0  0  0  0
    0.1184  -52.8197  -25.9920 C   0  0  0  0  0  0  0  0  0  0  0  0
    0.0679  -52.8674  -27.4482 C   0  0  0  0  0  0  0  0  0  0  0  0
   -1.0150  -52.5059  -28.2332 C   0  0  0  0  0  0  0  0  0  0  0  0
   -0.7066  -52.6790  -29.5337 N   0  0  0  0  0  0  0  0  0  0  0  0
    0.5345  -53.1368  -29.5820 N   0  0  0  0  0  0  0  0  0  0  0  0
    1.0323  -53.2625  -28.3435 C   0  0  0  0  0  0  0  0  0  0  0  0
    1.0245  -53.3579  -30.4775 H   0  0  0  0  0  0  0  0  0  0  0  0
    2.7467  -50.5852  -26.1897 C   0  0  0  0  0  0  0  0  0  0  0  0
    1.3723  -50.8098  -26.1092 O   0  0  0  0  0  0  0  0  0  0  0  0
 29 30  1  0  0  0
 30 17  1  0  0  0
 17 18  2  0  0  0
 18 19  1  0  0  0
 19 20  2  0  0  0
 20 21  1  0  0  0
 21 22  2  0  0  0
 22 23  1  0  0  0
 23 24  1  0  0  0
 24 25  2  0  0  0
 25 26  1  0  0  0
 26 27  1  0  0  0
 19  1  1  0  0  0
  1  2  2  0  0  0
  1  3  1  0  0  0
  3  4  1  0  0  0
  4  5  1  0  0  0
  5  6  1  0  0  0
  6  7  1  0  0  0
  7  8  1  0  0  0
  6  9  1  0  0  0
  9 10  2  0  0  0
 10 11  1  0  0  0
 11 12  1  0  0  0
 11 13  2  0  0  0
 13 14  1  0  0  0
 14 15  2  0  0  0
 15 16  1  0  0  0
 22 17  1  0  0  0
 27 23  2  0  0  0
  8  3  1  0  0  0
 15  9  1  0  0  0
 26 28  1  0  0  0
M  END
> <minimizedAffinity>
-7.90707

> <CNNscore>
0.2694252729

> <CNNaffinity>
6.2772307396

> <CNN_VS>
1.6912446022

> <CNNaffinity_variance>
0.2990178764

$$$$
[H]c1nn([H])c([H])c1-c1c([H])c([H])c(C(=O)N2C([H])([H])C([H])([H])C([H])(c3c([H])c(F)c([H])c([H])c3F)C([H])([H])C2([H])[H])c([H])c1OC([H])([H])[H]


 30 33  0  0  0  0  0  0  0  0999 V2000
    0.7609  -52.6239  -21.6752 C   0  0  0  0  0  0  0  0  0  0  0  0
    0.2348  -53.7961  -21.3659 O   0  0  0  0  0  0  0  0  0  0  0  0
    0.6821  -52.3598  -23.0355 N   0  0  0  0  0  0  0  0  0  0  0  0
    0.0408  -53.3785  -23.9184 C   0  0  0  0  0  0  0  0  0  0  0  0
   -1.0794  -52.5980  -24.6102 C   0  0  0  0  0  0  0  0  0  0  0  0
   -0.4784  -51.6633  -25.6285 C   0  0  0  0  0  0  0  0  0  0  0  0
    0.9631  -51.3847  -25.2582 C   0  0  0  0  0  0  0  0  0  0  0  0
    1.1437  -51.2171  -23.7429 C   0  0  0  0  0  0  0  0  0  0  0  0
   -0.4664  -52.2271  -27.0037 C   0  0  0  0  0  0  0  0  0  0  0  0
   -1.5896  -52.4158  -27.7556 C   0  0  0  0  0  0  0  0  0  0  0  0
   -1.4517  -52.9570  -29.0185 C   0  0  0  0  0  0  0  0  0  0  0  0
   -2.5626  -53.1440  -29.7617 F   0  0  0  0  0  0  0  0  0  0  0  0
   -0.2427  -53.3140  -29.5535 C   0  0  0  0  0  0  0  0  0  0  0  0
    0.9033  -53.1294  -28.8051 C   0  0  0  0  0  0  0  0  0  0  0  0
    0.7579  -52.5805  -27.5263 C   0  0  0  0  0  0  0  0  0  0  0  0
    1.9249  -52.4225  -26.8539 F   0  0  0  0  0  0  0  0  0  0  0  0
    2.8282  -50.2917  -19.4877 C   0  0  0  0  0  0  0  0  0  0  0  0
    2.3749  -51.0062  -20.6099 C   0  0  0  0  0  0  0  0  0  0  0  0
    1.3055  -51.8486  -20.5893 C   0  0  0  0  0  0  0  0  0  0  0  0
    0.6726  -51.9537  -19.3314 C   0  0  0  0  0  0  0  0  0  0  0  0
    1.1101  -51.2599  -18.2348 C   0  0  0  0  0  0  0  0  0  0  0  0
    2.1921  -50.4160  -18.2823 C   0  0  0  0  0  0  0  0  0  0  0  0
    2.6633  -49.6718  -17.1207 C   0  0  0  0  0  0  0  0  0  0  0  0
    2.2714  -48.3911  -16.7660 C   0  0  0  0  0  0  0  0  0  0  0  0
    2.9094  -48.0208  -15.6380 N   0  0  0  0  0  0  0  0  0  0  0  0
    3.6857  -49.0315  -15.2800 N   0  0  0  0  0  0  0  0  0  0  0  0
    3.5627  -50.0435  -16.1508 C   0  0  0  0  0  0  0  0  0  0  0  0
    4.2949  -49.0079  -14.4320 H   0  0  0  0  0  0  0  0  0  0  0  0
    5.1897  -49.8363  -20.0302 C   0  0  0  0  0  0  0  0  0  0  0  0
    3.9222  -49.4554  -19.5898 O   0  0  0  0  0  0  0  0  0  0  0  0
 29 30  1  0  0  0
 30 17  1  0  0  0
 17 18  2  0  0  0
 18 19  1  0  0  0
 19 20  2  0  0  0
 20 21  1  0  0  0
 21 22  2  0  0  0
 22 23  1  0  0  0
 23 24  1  0  0  0
 24 25  2  0  0  0
 25 26  1  0  0  0
 26 27  1  0  0  0
 19  1  1  0  0  0
  1  2  2  0  0  0
  1  3  1  0  0  0
  3  4  1  0  0  0
  4  5  1  0  0  0
  5  6  1  0  0  0
  6  7  1  0  0  0
  7  8  1  0  0  0
  6  9  1  0  0  0
  9 10  2  0  0  0
 10 11  1  0  0  0
 11 12  1  0  0  0
 11 13  2  0  0  0
 13 14  1  0  0  0
 14 15  2  0  0  0
 15 16  1  0  0  0
 22 17  1  0  0  0
 27 23  2  0  0  0
  8  3  1  0  0  0
 15  9  1  0  0  0
 26 28  1  0  0  0
M  END
> <minimizedAffinity>
-7.53941

> <CNNscore>
0.2646578252

> <CNNaffinity>
6.2847986221

> <CNN_VS>
1.6633211374

> <CNNaffinity_variance>
0.4448249936

$$$$
[H]c1nn([H])c([H])c1-c1c([H])c([H])c(C(=O)N2C([H])([H])C([H])([H])C([H])(c3c([H])c(F)c([H])c([H])c3F)C([H])([H])C2([H])[H])c([H])c1OC([H])([H])[H]


 30 33  0  0  0  0  0  0  0  0999 V2000
    0.5996  -52.9021  -20.9097 C   0  0  0  0  0  0  0  0  0  0  0  0
    0.1940  -54.1467  -20.7284 O   0  0  0  0  0  0  0  0  0  0  0  0
    0.6770  -52.5698  -22.2550 N   0  0  0  0  0  0  0  0  0  0  0  0
    0.3042  -53.6061  -23.2627 C   0  0  0  0  0  0  0  0  0  0  0  0
   -0.8014  -52.9311  -24.0780 C   0  0  0  0  0  0  0  0  0  0  0  0
   -0.1924  -51.8704  -24.9588 C   0  0  0  0  0  0  0  0  0  0  0  0
    1.1344  -51.4375  -24.3714 C   0  0  0  0  0  0  0  0  0  0  0  0
    1.0786  -51.3388  -22.8403 C   0  0  0  0  0  0  0  0  0  0  0  0
    0.0850  -52.3460  -26.3394 C   0  0  0  0  0  0  0  0  0  0  0  0
   -0.8354  -52.3270  -27.3471 C   0  0  0  0  0  0  0  0  0  0  0  0
   -0.4616  -52.8050  -28.5875 C   0  0  0  0  0  0  0  0  0  0  0  0
   -1.3718  -52.7865  -29.5837 F   0  0  0  0  0  0  0  0  0  0  0  0
    0.7878  -53.2975  -28.8561 C   0  0  0  0  0  0  0  0  0  0  0  0
    1.7302  -53.3236  -27.8469 C   0  0  0  0  0  0  0  0  0  0  0  0
    1.3463  -52.8379  -26.5921 C   0  0  0  0  0  0  0  0  0  0  0  0
    2.3243  -52.8887  -25.6541 F   0  0  0  0  0  0  0  0  0  0  0  0
    0.3862  -50.9458  -17.6500 C   0  0  0  0  0  0  0  0  0  0  0  0
    0.0072  -51.6974  -18.7756 C   0  0  0  0  0  0  0  0  0  0  0  0
    0.8811  -52.1308  -19.7253 C   0  0  0  0  0  0  0  0  0  0  0  0
    2.2239  -51.7618  -19.4913 C   0  0  0  0  0  0  0  0  0  0  0  0
    2.5987  -51.0296  -18.3964 C   0  0  0  0  0  0  0  0  0  0  0  0
    1.6968  -50.6045  -17.4525 C   0  0  0  0  0  0  0  0  0  0  0  0
    2.0871  -49.8269  -16.2829 C   0  0  0  0  0  0  0  0  0  0  0  0
    2.4177  -50.3434  -15.0405 C   0  0  0  0  0  0  0  0  0  0  0  0
    2.7252  -49.3352  -14.2005 N   0  0  0  0  0  0  0  0  0  0  0  0
    2.5963  -48.2077  -14.8820 N   0  0  0  0  0  0  0  0  0  0  0  0
    2.2130  -48.4661  -16.1405 C   0  0  0  0  0  0  0  0  0  0  0  0
    2.7763  -47.2674  -14.4646 H   0  0  0  0  0  0  0  0  0  0  0  0
   -1.4865  -51.3808  -16.1066 C   0  0  0  0  0  0  0  0  0  0  0  0
   -0.5615  -50.5433  -16.7300 O   0  0  0  0  0  0  0  0  0  0  0  0
 29 30  1  0  0  0
 30 17  1  0  0  0
 17 18  2  0  0  0
 18 19  1  0  0  0
 19 20  2  0  0  0
 20 21  1  0  0  0
 21 22  2  0  0  0
 22 23  1  0  0  0
 23 24  1  0  0  0
 24 25  2  0  0  0
 25 26  1  0  0  0
 26 27  1  0  0  0
 19  1  1  0  0  0
  1  2  2  0  0  0
  1  3  1  0  0  0
  3  4  1  0  0  0
  4  5  1  0  0  0
  5  6  1  0  0  0
  6  7  1  0  0  0
  7  8  1  0  0  0
  6  9  1  0  0  0
  9 10  2  0  0  0
 10 11  1  0  0  0
 11 12  1  0  0  0
 11 13  2  0  0  0
 13 14  1  0  0  0
 14 15  2  0  0  0
 15 16  1  0  0  0
 22 17  1  0  0  0
 27 23  2  0  0  0
  8  3  1  0  0  0
 15  9  1  0  0  0
 26 28  1  0  0  0
M  END
> <minimizedAffinity>
-8.17061

> <CNNscore>
0.2233721167

> <CNNaffinity>
6.2534942627

> <CNN_VS>
1.3968563080

> <CNNaffinity_variance>
0.4630604684

$$$$
[H]c1c([H])c(-c2c([H])c([H])c(C([H])([H])N3C([H])([H])[C@@]([H])(C([H])([H])[H])[C@@]3([H])C([H])([H])[H])c([H])c2[H])c([H])c([H])c1C#N


 21 23  0  0  0  0  0  0  0  0999 V2000
   -0.2443  -53.6609  -23.8272 C   0  0  0  0  0  0  0  0  0  0  0  0
   -0.8704  -54.4054  -22.8517 C   0  0  0  0  0  0  0  0  0  0  0  0
   -0.8900  -54.0022  -21.5200 C   0  0  0  0  0  0  0  0  0  0  0  0
   -0.2782  -52.8368  -21.1383 C   0  0  0  0  0  0  0  0  0  0  0  0
    0.3491  -52.0895  -22.1115 C   0  0  0  0  0  0  0  0  0  0  0  0
    0.3668  -52.4918  -23.4298 C   0  0  0  0  0  0  0  0  0  0  0  0
   -0.2890  -52.3955  -19.7337 C   0  0  0  0  0  0  0  0  0  0  0  0
    0.4382  -51.2528  -19.4286 C   0  0  0  0  0  0  0  0  0  0  0  0
    0.4607  -50.7973  -18.1239 C   0  0  0  0  0  0  0  0  0  0  0  0
   -0.2292  -51.4619  -17.1196 C   0  0  0  0  0  0  0  0  0  0  0  0
   -0.9445  -52.5988  -17.4585 C   0  0  0  0  0  0  0  0  0  0  0  0
   -0.9833  -53.0752  -18.7562 C   0  0  0  0  0  0  0  0  0  0  0  0
   -0.2128  -50.9982  -15.7616 C   0  0  0  0  0  0  0  0  0  0  0  0
   -0.1793  -50.6188  -14.6512 N   0  0  0  0  0  0  0  0  0  0  0  0
   -0.2386  -54.1063  -25.2236 C   0  0  0  0  0  0  0  0  0  0  0  0
   -0.5374  -52.7474  -29.3007 C   0  0  0  0  0  0  0  0  0  0  0  0
   -0.5442  -53.3201  -27.9086 C   0  0  0  0  0  0  0  0  0  0  0  0
   -0.3900  -52.3229  -26.7993 C   0  0  0  0  0  0  0  0  0  0  0  0
    0.5040  -53.2707  -26.1130 N   0  0  0  0  0  0  0  0  0  0  0  0
    0.8283  -53.7878  -27.4127 C   0  0  0  0  0  0  0  0  0  0  0  0
    1.9656  -52.9953  -28.0423 C   0  0  0  0  0  0  0  0  0  0  0  0
 16 17  1  0  0  0
 17 18  1  0  0  0
 18 19  1  0  0  0
 19 15  1  0  0  0
 15  1  1  0  0  0
  1  2  2  0  0  0
  2  3  1  0  0  0
  3  4  2  0  0  0
  4  5  1  0  0  0
  5  6  2  0  0  0
  4  7  1  0  0  0
  7  8  2  0  0  0
  8  9  1  0  0  0
  9 10  2  0  0  0
 10 11  1  0  0  0
 11 12  2  0  0  0
 10 13  1  0  0  0
 13 14  3  0  0  0
 19 20  1  0  0  0
 20 21  1  0  0  0
 20 17  1  0  0  0
  6  1  1  0  0  0
 12  7  1  0  0  0
M  END
> <minimizedAffinity>
-7.70355

> <CNNscore>
0.6065707803

> <CNNaffinity>
5.5163125992

> <CNN_VS>
3.3460340500

> <CNNaffinity_variance>
0.1809751093

$$$$
[H]c1c([H])c(-c2c([H])c([H])c(C([H])([H])N3C([H])([H])[C@@]([H])(C([H])([H])[H])[C@@]3([H])C([H])([H])[H])c([H])c2[H])c([H])c([H])c1C#N


 21 23  0  0  0  0  0  0  0  0999 V2000
   -0.2158  -53.6765  -23.8247 C   0  0  0  0  0  0  0  0  0  0  0  0
    0.4555  -52.5342  -23.4476 C   0  0  0  0  0  0  0  0  0  0  0  0
    0.4542  -52.0829  -22.1313 C   0  0  0  0  0  0  0  0  0  0  0  0
   -0.2247  -52.7729  -21.1613 C   0  0  0  0  0  0  0  0  0  0  0  0
   -0.8975  -53.9161  -21.5349 C   0  0  0  0  0  0  0  0  0  0  0  0
   -0.8943  -54.3605  -22.8398 C   0  0  0  0  0  0  0  0  0  0  0  0
   -0.2369  -52.3092  -19.7639 C   0  0  0  0  0  0  0  0  0  0  0  0
   -0.9636  -53.0684  -18.8564 C   0  0  0  0  0  0  0  0  0  0  0  0
   -1.0071  -52.6751  -17.5321 C   0  0  0  0  0  0  0  0  0  0  0  0
   -0.3389  -51.5387  -17.0985 C   0  0  0  0  0  0  0  0  0  0  0  0
    0.3765  -50.8043  -18.0301 C   0  0  0  0  0  0  0  0  0  0  0  0
    0.4361  -51.1761  -19.3607 C   0  0  0  0  0  0  0  0  0  0  0  0
   -0.3773  -51.1208  -15.7261 C   0  0  0  0  0  0  0  0  0  0  0  0
   -0.3893  -50.7830  -14.6020 N   0  0  0  0  0  0  0  0  0  0  0  0
   -0.1984  -54.1323  -25.2176 C   0  0  0  0  0  0  0  0  0  0  0  0
   -0.4991  -52.7502  -29.2869 C   0  0  0  0  0  0  0  0  0  0  0  0
   -0.5068  -53.3293  -27.8974 C   0  0  0  0  0  0  0  0  0  0  0  0
   -0.3328  -52.3395  -26.7843 C   0  0  0  0  0  0  0  0  0  0  0  0
    0.5512  -53.3030  -26.1070 N   0  0  0  0  0  0  0  0  0  0  0  0
    0.8616  -53.8184  -27.4108 C   0  0  0  0  0  0  0  0  0  0  0  0
    2.0066  -53.0390  -28.0427 C   0  0  0  0  0  0  0  0  0  0  0  0
 16 17  1  0  0  0
 17 18  1  0  0  0
 18 19  1  0  0  0
 19 15  1  0  0  0
 15  1  1  0  0  0
  1  2  2  0  0  0
  2  3  1  0  0  0
  3  4  2  0  0  0
  4  5  1  0  0  0
  5  6  2  0  0  0
  4  7  1  0  0  0
  7  8  2  0  0  0
  8  9  1  0  0  0
  9 10  2  0  0  0
 10 11  1  0  0  0
 11 12  2  0  0  0
 10 13  1  0  0  0
 13 14  3  0  0  0
 19 20  1  0  0  0
 20 21  1  0  0  0
 20 17  1  0  0  0
  6  1  1  0  0  0
 12  7  1  0  0  0
M  END
> <minimizedAffinity>
-7.69965

> <CNNscore>
0.6006774902

> <CNNaffinity>
5.5135989189

> <CNN_VS>
3.3118946552

> <CNNaffinity_variance>
0.1863034666

$$$$
[H]c1c([H])c(-c2c([H])c([H])c(C([H])([H])N3C([H])([H])[C@@]([H])(C([H])([H])[H])[C@@]3([H])C([H])([H])[H])c([H])c2[H])c([H])c([H])c1C#N


 21 23  0  0  0  0  0  0  0  0999 V2000
    0.5881  -53.0501  -24.0580 C   0  0  0  0  0  0  0  0  0  0  0  0
   -0.3717  -53.6971  -23.3112 C   0  0  0  0  0  0  0  0  0  0  0  0
   -0.5752  -53.4052  -21.9659 C   0  0  0  0  0  0  0  0  0  0  0  0
    0.1851  -52.4526  -21.3394 C   0  0  0  0  0  0  0  0  0  0  0  0
    1.1464  -51.8033  -22.0833 C   0  0  0  0  0  0  0  0  0  0  0  0
    1.3454  -52.0949  -23.4158 C   0  0  0  0  0  0  0  0  0  0  0  0
   -0.0165  -52.1317  -19.9166 C   0  0  0  0  0  0  0  0  0  0  0  0
   -0.7884  -53.0170  -19.1762 C   0  0  0  0  0  0  0  0  0  0  0  0
   -1.0080  -52.7606  -17.8359 C   0  0  0  0  0  0  0  0  0  0  0  0
   -0.4712  -51.6372  -17.2227 C   0  0  0  0  0  0  0  0  0  0  0  0
    0.2939  -50.7747  -17.9906 C   0  0  0  0  0  0  0  0  0  0  0  0
    0.5287  -51.0083  -19.3332 C   0  0  0  0  0  0  0  0  0  0  0  0
   -0.6929  -51.3609  -15.8320 C   0  0  0  0  0  0  0  0  0  0  0  0
   -0.8937  -51.1325  -14.6982 N   0  0  0  0  0  0  0  0  0  0  0  0
    0.7824  -53.3744  -25.4741 C   0  0  0  0  0  0  0  0  0  0  0  0
   -0.5079  -52.6768  -29.5248 C   0  0  0  0  0  0  0  0  0  0  0  0
    0.0713  -52.8484  -28.1459 C   0  0  0  0  0  0  0  0  0  0  0  0
   -0.1713  -54.1823  -27.5050 C   0  0  0  0  0  0  0  0  0  0  0  0
   -0.4240  -53.4894  -26.2304 N   0  0  0  0  0  0  0  0  0  0  0  0
   -0.8398  -52.3606  -27.0144 C   0  0  0  0  0  0  0  0  0  0  0  0
   -2.3141  -52.4681  -27.3791 C   0  0  0  0  0  0  0  0  0  0  0  0
 16 17  1  0  0  0
 17 18  1  0  0  0
 18 19  1  0  0  0
 19 15  1  0  0  0
 15  1  1  0  0  0
  1  2  2  0  0  0
  2  3  1  0  0  0
  3  4  2  0  0  0
  4  5  1  0  0  0
  5  6  2  0  0  0
  4  7  1  0  0  0
  7  8  2  0  0  0
  8  9  1  0  0  0
  9 10  2  0  0  0
 10 11  1  0  0  0
 11 12  2  0  0  0
 10 13  1  0  0  0
 13 14  3  0  0  0
 19 20  1  0  0  0
 20 21  1  0  0  0
 20 17  1  0  0  0
  6  1  1  0  0  0
 12  7  1  0  0  0
M  END
> <minimizedAffinity>
-7.79831

> <CNNscore>
0.5850931406

> <CNNaffinity>
5.5807695389

> <CNN_VS>
3.2652699947

> <CNNaffinity_variance>
0.0749798715

$$$$
[H]c1c([H])c(-c2c([H])c([H])c(C([H])([H])N3C([H])([H])[C@@]([H])(C([H])([H])[H])[C@@]3([H])C([H])([H])[H])c([H])c2[H])c([H])c([H])c1C#N


 21 23  0  0  0  0  0  0  0  0999 V2000
    0.5507  -53.0605  -24.0386 C   0  0  0  0  0  0  0  0  0  0  0  0
   -0.3530  -53.7756  -23.2839 C   0  0  0  0  0  0  0  0  0  0  0  0
   -0.5634  -53.5011  -21.9360 C   0  0  0  0  0  0  0  0  0  0  0  0
    0.1331  -52.4975  -21.3149 C   0  0  0  0  0  0  0  0  0  0  0  0
    1.0380  -51.7800  -22.0667 C   0  0  0  0  0  0  0  0  0  0  0  0
    1.2441  -52.0546  -23.4018 C   0  0  0  0  0  0  0  0  0  0  0  0
   -0.0768  -52.1941  -19.8895 C   0  0  0  0  0  0  0  0  0  0  0  0
    0.5195  -51.0404  -19.3983 C   0  0  0  0  0  0  0  0  0  0  0  0
    0.3533  -50.7111  -18.0664 C   0  0  0  0  0  0  0  0  0  0  0  0
   -0.3969  -51.5125  -17.2171 C   0  0  0  0  0  0  0  0  0  0  0  0
   -0.9779  -52.6563  -17.7397 C   0  0  0  0  0  0  0  0  0  0  0  0
   -0.8270  -53.0082  -19.0685 C   0  0  0  0  0  0  0  0  0  0  0  0
   -0.5761  -51.1805  -15.8324 C   0  0  0  0  0  0  0  0  0  0  0  0
   -0.7169  -50.9275  -14.6949 N   0  0  0  0  0  0  0  0  0  0  0  0
    0.7535  -53.3679  -25.4573 C   0  0  0  0  0  0  0  0  0  0  0  0
   -0.5272  -52.6534  -29.5080 C   0  0  0  0  0  0  0  0  0  0  0  0
    0.0481  -52.8295  -28.1281 C   0  0  0  0  0  0  0  0  0  0  0  0
   -0.1848  -54.1700  -27.4976 C   0  0  0  0  0  0  0  0  0  0  0  0
   -0.4488  -53.4884  -26.2192 N   0  0  0  0  0  0  0  0  0  0  0  0
   -0.8718  -52.3579  -26.9968 C   0  0  0  0  0  0  0  0  0  0  0  0
   -2.3435  -52.4761  -27.3681 C   0  0  0  0  0  0  0  0  0  0  0  0
 16 17  1  0  0  0
 17 18  1  0  0  0
 18 19  1  0  0  0
 19 15  1  0  0  0
 15  1  1  0  0  0
  1  2  2  0  0  0
  2  3  1  0  0  0
  3  4  2  0  0  0
  4  5  1  0  0  0
  5  6  2  0  0  0
  4  7  1  0  0  0
  7  8  2  0  0  0
  8  9  1  0  0  0
  9 10  2  0  0  0
 10 11  1  0  0  0
 11 12  2  0  0  0
 10 13  1  0  0  0
 13 14  3  0  0  0
 19 20  1  0  0  0
 20 21  1  0  0  0
 20 17  1  0  0  0
  6  1  1  0  0  0
 12  7  1  0  0  0
M  END
> <minimizedAffinity>
-7.75125

> <CNNscore>
0.5750581026

> <CNNaffinity>
5.5639047623

> <CNN_VS>
3.1995685101

> <CNNaffinity_variance>
0.0814425051

$$$$
[H]c1c([H])c(-c2c([H])c([H])c(C([H])([H])N3C([H])([H])[C@@]([H])(C([H])([H])[H])[C@@]3([H])C([H])([H])[H])c([H])c2[H])c([H])c([H])c1C#N


 21 23  0  0  0  0  0  0  0  0999 V2000
    0.6242  -52.5085  -23.3631 C   0  0  0  0  0  0  0  0  0  0  0  0
    0.9445  -51.3159  -22.7524 C   0  0  0  0  0  0  0  0  0  0  0  0
    0.7405  -51.1102  -21.3913 C   0  0  0  0  0  0  0  0  0  0  0  0
    0.2079  -52.1031  -20.6113 C   0  0  0  0  0  0  0  0  0  0  0  0
   -0.1138  -53.2974  -21.2188 C   0  0  0  0  0  0  0  0  0  0  0  0
    0.0895  -53.4979  -22.5673 C   0  0  0  0  0  0  0  0  0  0  0  0
   -0.0151  -51.9022  -19.1698 C   0  0  0  0  0  0  0  0  0  0  0  0
   -0.8689  -52.7948  -18.5358 C   0  0  0  0  0  0  0  0  0  0  0  0
   -1.1118  -52.6490  -17.1830 C   0  0  0  0  0  0  0  0  0  0  0  0
   -0.5180  -51.6289  -16.4530 C   0  0  0  0  0  0  0  0  0  0  0  0
    0.3284  -50.7559  -17.1167 C   0  0  0  0  0  0  0  0  0  0  0  0
    0.5881  -50.8799  -18.4693 C   0  0  0  0  0  0  0  0  0  0  0  0
   -0.7631  -51.4678  -15.0482 C   0  0  0  0  0  0  0  0  0  0  0  0
   -0.9620  -51.3163  -13.9013 N   0  0  0  0  0  0  0  0  0  0  0  0
    0.8499  -52.7012  -24.7985 C   0  0  0  0  0  0  0  0  0  0  0  0
   -0.3238  -52.7391  -28.9433 C   0  0  0  0  0  0  0  0  0  0  0  0
    0.2146  -52.6585  -27.5399 C   0  0  0  0  0  0  0  0  0  0  0  0
   -0.0283  -53.8663  -26.6847 C   0  0  0  0  0  0  0  0  0  0  0  0
   -0.3306  -52.9688  -25.5570 N   0  0  0  0  0  0  0  0  0  0  0  0
   -0.7383  -52.0008  -26.5360 C   0  0  0  0  0  0  0  0  0  0  0  0
   -2.1987  -52.1988  -26.9179 C   0  0  0  0  0  0  0  0  0  0  0  0
 16 17  1  0  0  0
 17 18  1  0  0  0
 18 19  1  0  0  0
 19 15  1  0  0  0
 15  1  1  0  0  0
  1  2  2  0  0  0
  2  3  1  0  0  0
  3  4  2  0  0  0
  4  5  1  0  0  0
  5  6  2  0  0  0
  4  7  1  0  0  0
  7  8  2  0  0  0
  8  9  1  0  0  0
  9 10  2  0  0  0
 10 11  1  0  0  0
 11 12  2  0  0  0
 10 13  1  0  0  0
 13 14  3  0  0  0
 19 20  1  0  0  0
 20 21  1  0  0  0
 20 17  1  0  0  0
  6  1  1  0  0  0
 12  7  1  0  0  0
M  END
> <minimizedAffinity>
-7.43984

> <CNNscore>
0.5256847739

> <CNNaffinity>
5.4179611206

> <CNN_VS>
2.8481397629

> <CNNaffinity_variance>
0.1034370661

$$$$
[H]c1c([H])c(-c2c([H])c([H])c(C([H])([H])N3C([H])([H])[C@@]([H])(C([H])([H])[H])[C@@]3([H])C([H])([H])[H])c([H])c2[H])c([H])c([H])c1C#N


 21 23  0  0  0  0  0  0  0  0999 V2000
   -0.4689  -51.7490  -16.8804 C   0  0  0  0  0  0  0  0  0  0  0  0
    0.4222  -51.1691  -17.7565 C   0  0  0  0  0  0  0  0  0  0  0  0
    0.4759  -51.5347  -19.0981 C   0  0  0  0  0  0  0  0  0  0  0  0
   -0.3685  -52.4954  -19.5903 C   0  0  0  0  0  0  0  0  0  0  0  0
   -1.2611  -53.0777  -18.7167 C   0  0  0  0  0  0  0  0  0  0  0  0
   -1.3117  -52.7132  -17.3883 C   0  0  0  0  0  0  0  0  0  0  0  0
   -0.3247  -52.8946  -21.0068 C   0  0  0  0  0  0  0  0  0  0  0  0
   -0.8665  -54.1321  -21.3278 C   0  0  0  0  0  0  0  0  0  0  0  0
   -0.8496  -54.5536  -22.6439 C   0  0  0  0  0  0  0  0  0  0  0  0
   -0.3018  -53.7625  -23.6440 C   0  0  0  0  0  0  0  0  0  0  0  0
    0.2303  -52.5337  -23.2891 C   0  0  0  0  0  0  0  0  0  0  0  0
    0.2258  -52.0886  -21.9798 C   0  0  0  0  0  0  0  0  0  0  0  0
   -0.2786  -54.1901  -25.0137 C   0  0  0  0  0  0  0  0  0  0  0  0
   -0.2735  -54.5536  -26.1299 N   0  0  0  0  0  0  0  0  0  0  0  0
   -0.5070  -51.3457  -15.4718 C   0  0  0  0  0  0  0  0  0  0  0  0
   -2.5801  -48.7444  -12.7341 C   0  0  0  0  0  0  0  0  0  0  0  0
   -1.9380  -49.7670  -13.6331 C   0  0  0  0  0  0  0  0  0  0  0  0
   -0.4601  -49.6124  -13.8347 C   0  0  0  0  0  0  0  0  0  0  0  0
   -0.6510  -49.9407  -15.2575 N   0  0  0  0  0  0  0  0  0  0  0  0
   -1.9786  -49.4106  -15.1230 C   0  0  0  0  0  0  0  0  0  0  0  0
   -1.9866  -47.9055  -15.3520 C   0  0  0  0  0  0  0  0  0  0  0  0
 16 17  1  0  0  0
 17 18  1  0  0  0
 18 19  1  0  0  0
 19 15  1  0  0  0
 15  1  1  0  0  0
  1  2  2  0  0  0
  2  3  1  0  0  0
  3  4  2  0  0  0
  4  5  1  0  0  0
  5  6  2  0  0  0
  4  7  1  0  0  0
  7  8  2  0  0  0
  8  9  1  0  0  0
  9 10  2  0  0  0
 10 11  1  0  0  0
 11 12  2  0  0  0
 10 13  1  0  0  0
 13 14  3  0  0  0
 19 20  1  0  0  0
 20 21  1  0  0  0
 20 17  1  0  0  0
  6  1  1  0  0  0
 12  7  1  0  0  0
M  END
> <minimizedAffinity>
-6.68185

> <CNNscore>
0.4820864499

> <CNNaffinity>
5.0108923912

> <CNN_VS>
2.4156832695

> <CNNaffinity_variance>
0.0960941389

$$$$
[H]c1c([H])c(-c2c([H])c([H])c(C([H])([H])N3C([H])([H])[C@@]([H])(C([H])([H])[H])[C@@]3([H])C([H])([H])[H])c([H])c2[H])c([H])c([H])c1C#N


 21 23  0  0  0  0  0  0  0  0999 V2000
   -0.6214  -52.0315  -17.6037 C   0  0  0  0  0  0  0  0  0  0  0  0
   -1.4127  -53.0464  -18.0950 C   0  0  0  0  0  0  0  0  0  0  0  0
   -1.3728  -53.4260  -19.4332 C   0  0  0  0  0  0  0  0  0  0  0  0
   -0.5329  -52.7909  -20.3103 C   0  0  0  0  0  0  0  0  0  0  0  0
    0.2602  -51.7751  -19.8223 C   0  0  0  0  0  0  0  0  0  0  0  0
    0.2181  -51.4014  -18.4962 C   0  0  0  0  0  0  0  0  0  0  0  0
   -0.4784  -53.1794  -21.7295 C   0  0  0  0  0  0  0  0  0  0  0  0
    0.1340  -52.2892  -22.6014 C   0  0  0  0  0  0  0  0  0  0  0  0
    0.2105  -52.6070  -23.9443 C   0  0  0  0  0  0  0  0  0  0  0  0
   -0.3130  -53.7965  -24.4314 C   0  0  0  0  0  0  0  0  0  0  0  0
   -0.9173  -54.6619  -23.5342 C   0  0  0  0  0  0  0  0  0  0  0  0
   -1.0068  -54.3677  -22.1859 C   0  0  0  0  0  0  0  0  0  0  0  0
   -0.2394  -54.1367  -25.8237 C   0  0  0  0  0  0  0  0  0  0  0  0
   -0.1988  -54.4195  -26.9622 N   0  0  0  0  0  0  0  0  0  0  0  0
   -0.6806  -51.6510  -16.1895 C   0  0  0  0  0  0  0  0  0  0  0  0
   -3.2282  -51.1232  -12.7558 C   0  0  0  0  0  0  0  0  0  0  0  0
   -2.2808  -51.4290  -13.8849 C   0  0  0  0  0  0  0  0  0  0  0  0
   -1.6180  -50.2389  -14.5120 C   0  0  0  0  0  0  0  0  0  0  0  0
   -1.8165  -50.8622  -15.8313 N   0  0  0  0  0  0  0  0  0  0  0  0
   -2.9506  -51.5319  -15.2594 C   0  0  0  0  0  0  0  0  0  0  0  0
   -4.1975  -50.6637  -15.3556 C   0  0  0  0  0  0  0  0  0  0  0  0
 16 17  1  0  0  0
 17 18  1  0  0  0
 18 19  1  0  0  0
 19 15  1  0  0  0
 15  1  1  0  0  0
  1  2  2  0  0  0
  2  3  1  0  0  0
  3  4  2  0  0  0
  4  5  1  0  0  0
  5  6  2  0  0  0
  4  7  1  0  0  0
  7  8  2  0  0  0
  8  9  1  0  0  0
  9 10  2  0  0  0
 10 11  1  0  0  0
 11 12  2  0  0  0
 10 13  1  0  0  0
 13 14  3  0  0  0
 19 20  1  0  0  0
 20 21  1  0  0  0
 20 17  1  0  0  0
  6  1  1  0  0  0
 12  7  1  0  0  0
M  END
> <minimizedAffinity>
-6.91987

> <CNNscore>
0.4796817899

> <CNNaffinity>
5.1960649490

> <CNN_VS>
2.4924576283

> <CNNaffinity_variance>
0.0606981218

$$$$
[H]c1c([H])c(-c2c([H])c([H])c(C([H])([H])N3C([H])([H])[C@@]([H])(C([H])([H])[H])[C@@]3([H])C([H])([H])[H])c([H])c2[H])c([H])c([H])c1C#N


 21 23  0  0  0  0  0  0  0  0999 V2000
    1.2521  -51.6501  -23.8045 C   0  0  0  0  0  0  0  0  0  0  0  0
    0.6696  -52.7627  -23.2384 C   0  0  0  0  0  0  0  0  0  0  0  0
    0.3087  -52.7990  -21.8949 C   0  0  0  0  0  0  0  0  0  0  0  0
    0.5264  -51.7130  -21.0879 C   0  0  0  0  0  0  0  0  0  0  0  0
    1.1090  -50.5981  -21.6509 C   0  0  0  0  0  0  0  0  0  0  0  0
    1.4654  -50.5655  -22.9820 C   0  0  0  0  0  0  0  0  0  0  0  0
    0.1512  -51.7345  -19.6643 C   0  0  0  0  0  0  0  0  0  0  0  0
    0.5634  -50.6584  -18.8897 C   0  0  0  0  0  0  0  0  0  0  0  0
    0.2371  -50.6312  -17.5469 C   0  0  0  0  0  0  0  0  0  0  0  0
   -0.4926  -51.6582  -16.9646 C   0  0  0  0  0  0  0  0  0  0  0  0
   -0.8878  -52.7167  -17.7662 C   0  0  0  0  0  0  0  0  0  0  0  0
   -0.5743  -52.7680  -19.1121 C   0  0  0  0  0  0  0  0  0  0  0  0
   -0.8368  -51.6406  -15.5715 C   0  0  0  0  0  0  0  0  0  0  0  0
   -1.1256  -51.6076  -14.4343 N   0  0  0  0  0  0  0  0  0  0  0  0
    1.6221  -51.6359  -25.2227 C   0  0  0  0  0  0  0  0  0  0  0  0
    0.1255  -53.0783  -28.9961 C   0  0  0  0  0  0  0  0  0  0  0  0
    0.5855  -52.4407  -27.7124 C   0  0  0  0  0  0  0  0  0  0  0  0
    1.9732  -52.8017  -27.2731 C   0  0  0  0  0  0  0  0  0  0  0  0
    1.4785  -52.8913  -25.8890 N   0  0  0  0  0  0  0  0  0  0  0  0
    0.1968  -53.2160  -26.4490 C   0  0  0  0  0  0  0  0  0  0  0  0
    0.0820  -54.7120  -26.7073 C   0  0  0  0  0  0  0  0  0  0  0  0
 16 17  1  0  0  0
 17 18  1  0  0  0
 18 19  1  0  0  0
 19 15  1  0  0  0
 15  1  1  0  0  0
  1  2  2  0  0  0
  2  3  1  0  0  0
  3  4  2  0  0  0
  4  5  1  0  0  0
  5  6  2  0  0  0
  4  7  1  0  0  0
  7  8  2  0  0  0
  8  9  1  0  0  0
  9 10  2  0  0  0
 10 11  1  0  0  0
 11 12  2  0  0  0
 10 13  1  0  0  0
 13 14  3  0  0  0
 19 20  1  0  0  0
 20 21  1  0  0  0
 20 17  1  0  0  0
  6  1  1  0  0  0
 12  7  1  0  0  0
M  END
> <minimizedAffinity>
-7.11029

> <CNNscore>
0.4176059365

> <CNNaffinity>
5.3515205383

> <CNN_VS>
2.2348268032

> <CNNaffinity_variance>
0.0779853836

$$$$
[H]c1c([H])c(-c2c([H])c([H])c(C([H])([H])N3C([H])([H])[C@@]([H])(C([H])([H])[H])[C@@]3([H])C([H])([H])[H])c([H])c2[H])c([H])c([H])c1C#N


 21 23  0  0  0  0  0  0  0  0999 V2000
   -0.0207  -53.1017  -23.8633 C   0  0  0  0  0  0  0  0  0  0  0  0
   -0.7230  -53.4826  -22.7412 C   0  0  0  0  0  0  0  0  0  0  0  0
   -0.5592  -52.8381  -21.5188 C   0  0  0  0  0  0  0  0  0  0  0  0
    0.3178  -51.7921  -21.3974 C   0  0  0  0  0  0  0  0  0  0  0  0
    1.0222  -51.4083  -22.5180 C   0  0  0  0  0  0  0  0  0  0  0  0
    0.8576  -52.0490  -23.7273 C   0  0  0  0  0  0  0  0  0  0  0  0
    0.5038  -51.0993  -20.1116 C   0  0  0  0  0  0  0  0  0  0  0  0
    0.0478  -51.7525  -18.9744 C   0  0  0  0  0  0  0  0  0  0  0  0
    0.1982  -51.1441  -17.7425 C   0  0  0  0  0  0  0  0  0  0  0  0
    0.7952  -49.8965  -17.6262 C   0  0  0  0  0  0  0  0  0  0  0  0
    1.2388  -49.2728  -18.7809 C   0  0  0  0  0  0  0  0  0  0  0  0
    1.1004  -49.8599  -20.0253 C   0  0  0  0  0  0  0  0  0  0  0  0
    0.9565  -49.2553  -16.3525 C   0  0  0  0  0  0  0  0  0  0  0  0
    1.0768  -48.7157  -15.3170 N   0  0  0  0  0  0  0  0  0  0  0  0
   -0.2119  -53.7957  -25.1401 C   0  0  0  0  0  0  0  0  0  0  0  0
   -0.8386  -52.7285  -29.2665 C   0  0  0  0  0  0  0  0  0  0  0  0
   -0.7568  -53.1661  -27.8285 C   0  0  0  0  0  0  0  0  0  0  0  0
   -0.1534  -52.1700  -26.8838 C   0  0  0  0  0  0  0  0  0  0  0  0
    0.5608  -53.2755  -26.2231 N   0  0  0  0  0  0  0  0  0  0  0  0
    0.5061  -53.9623  -27.4829 C   0  0  0  0  0  0  0  0  0  0  0  0
    1.6866  -53.5747  -28.3627 C   0  0  0  0  0  0  0  0  0  0  0  0
 16 17  1  0  0  0
 17 18  1  0  0  0
 18 19  1  0  0  0
 19 15  1  0  0  0
 15  1  1  0  0  0
  1  2  2  0  0  0
  2  3  1  0  0  0
  3  4  2  0  0  0
  4  5  1  0  0  0
  5  6  2  0  0  0
  4  7  1  0  0  0
  7  8  2  0  0  0
  8  9  1  0  0  0
  9 10  2  0  0  0
 10 11  1  0  0  0
 11 12  2  0  0  0
 10 13  1  0  0  0
 13 14  3  0  0  0
 19 20  1  0  0  0
 20 21  1  0  0  0
 20 17  1  0  0  0
  6  1  1  0  0  0
 12  7  1  0  0  0
M  END
> <minimizedAffinity>
-7.39615

> <CNNscore>
0.3528274298

> <CNNaffinity>
5.3220109940

> <CNN_VS>
1.8777514696

> <CNNaffinity_variance>
0.0866354257

$$$$
[H]OC(=O)c1c([H])c([H])c(N([H])C(=O)[C@@]([H])(N([H])[H])[C@]([H])(OC([H])([H])c2c([H])c([H])c([H])c([H])c2[H])C(=O)N([H])c2c([H])c([H])c(C(F)(F)F)c([H])c2[H])c([H])c1[H]


 41 43  0  0  0  0  0  0  0  0999 V2000
   -0.4425  -52.6725  -23.2434 C   0  0  0  0  0  0  0  0  0  0  0  0
   -1.3328  -54.9873  -22.9797 N   0  0  0  0  0  0  0  0  0  0  0  0
   -0.4513  -54.0054  -22.3973 C   0  0  0  0  0  0  0  0  0  0  0  0
   -2.3035  -54.8915  -22.6014 H   0  0  0  0  0  0  0  0  0  0  0  0
   -0.9646  -55.9511  -23.0105 H   0  0  0  0  0  0  0  0  0  0  0  0
   -0.9906  -53.8044  -21.0065 C   0  0  0  0  0  0  0  0  0  0  0  0
   -2.0012  -54.3727  -20.5526 O   0  0  0  0  0  0  0  0  0  0  0  0
   -0.2366  -52.8903  -20.2373 N   0  0  0  0  0  0  0  0  0  0  0  0
    0.6159  -52.4275  -20.7516 H   0  0  0  0  0  0  0  0  0  0  0  0
   -0.3625  -52.4337  -18.9374 C   0  0  0  0  0  0  0  0  0  0  0  0
    0.3635  -51.3364  -18.4923 C   0  0  0  0  0  0  0  0  0  0  0  0
    0.1624  -50.8127  -17.2090 C   0  0  0  0  0  0  0  0  0  0  0  0
   -0.7734  -51.3829  -16.3540 C   0  0  0  0  0  0  0  0  0  0  0  0
   -1.4917  -52.4721  -16.7912 C   0  0  0  0  0  0  0  0  0  0  0  0
   -1.2866  -52.9849  -18.0597 C   0  0  0  0  0  0  0  0  0  0  0  0
   -1.0280  -50.8153  -15.0299 C   0  0  0  0  0  0  0  0  0  0  0  0
   -1.1741  -51.7279  -13.9594 O   0  0  0  0  0  0  0  0  0  0  0  0
   -1.1186  -49.6129  -14.8041 O   0  0  0  0  0  0  0  0  0  0  0  0
   -0.2805  -52.1370  -13.6196 H   0  0  0  0  0  0  0  0  0  0  0  0
    1.0383  -52.4524  -23.3171 C   0  0  0  0  0  0  0  0  0  0  0  0
    1.8525  -53.1035  -23.9659 O   0  0  0  0  0  0  0  0  0  0  0  0
    1.4931  -51.3260  -22.5470 N   0  0  0  0  0  0  0  0  0  0  0  0
    0.7387  -50.8054  -21.9604 H   0  0  0  0  0  0  0  0  0  0  0  0
    2.7861  -50.8176  -22.4436 C   0  0  0  0  0  0  0  0  0  0  0  0
    3.5886  -51.3413  -21.4034 C   0  0  0  0  0  0  0  0  0  0  0  0
    4.8597  -50.8876  -21.2244 C   0  0  0  0  0  0  0  0  0  0  0  0
    5.4226  -49.9134  -22.0293 C   0  0  0  0  0  0  0  0  0  0  0  0
    4.6314  -49.4216  -23.0283 C   0  0  0  0  0  0  0  0  0  0  0  0
    3.3298  -49.8585  -23.2437 C   0  0  0  0  0  0  0  0  0  0  0  0
    6.8320  -49.4776  -21.7347 C   0  0  0  0  0  0  0  0  0  0  0  0
    6.7419  -48.4418  -20.8335 F   0  0  0  0  0  0  0  0  0  0  0  0
    7.4409  -50.5701  -21.1576 F   0  0  0  0  0  0  0  0  0  0  0  0
    7.4410  -49.1060  -22.8887 F   0  0  0  0  0  0  0  0  0  0  0  0
   -0.8582  -53.1192  -24.4975 O   0  0  0  0  0  0  0  0  0  0  0  0
   -1.1565  -52.2776  -25.4624 C   0  0  0  0  0  0  0  0  0  0  0  0
   -0.9002  -52.5033  -26.8985 C   0  0  0  0  0  0  0  0  0  0  0  0
    0.4389  -52.7867  -27.2773 C   0  0  0  0  0  0  0  0  0  0  0  0
    0.8405  -53.0240  -28.5393 C   0  0  0  0  0  0  0  0  0  0  0  0
   -0.0852  -53.0008  -29.5436 C   0  0  0  0  0  0  0  0  0  0  0  0
   -1.4155  -52.7244  -29.2041 C   0  0  0  0  0  0  0  0  0  0  0  0
   -1.8125  -52.4818  -27.9146 C   0  0  0  0  0  0  0  0  0  0  0  0
  2  3  1  0  0  0
  3  1  1  0  0  0
  1 34  1  0  0  0
 34 35  1  0  0  0
 35 36  1  0  0  0
 36 37  2  0  0  0
 37 38  1  0  0  0
 38 39  2  0  0  0
 39 40  1  0  0  0
 40 41  2  0  0  0
  1 20  1  0  0  0
 20 21  2  0  0  0
 20 22  1  0  0  0
 22 24  1  0  0  0
 24 25  2  0  0  0
 25 26  1  0  0  0
 26 27  2  0  0  0
 27 28  1  0  0  0
 28 29  2  0  0  0
 27 30  1  0  0  0
 30 31  1  0  0  0
 30 32  1  0  0  0
 30 33  1  0  0  0
  3  6  1  0  0  0
  6  7  2  0  0  0
  6  8  1  0  0  0
  8 10  1  0  0  0
 10 11  2  0  0  0
 11 12  1  0  0  0
 12 13  2  0  0  0
 13 14  1  0  0  0
 14 15  2  0  0  0
 13 16  1  0  0  0
 16 17  1  0  0  0
 16 18  2  0  0  0
 41 36  1  0  0  0
 29 24  1  0  0  0
 15 10  1  0  0  0
  2  4  1  0  0  0
  2  5  1  0  0  0
 22 23  1  0  0  0
  8  9  1  0  0  0
 17 19  1  0  0  0
M  END
> <minimizedAffinity>
-8.35242

> <CNNscore>
0.7353548408

> <CNNaffinity>
6.7963891029

> <CNN_VS>
4.9977574348

> <CNNaffinity_variance>
0.0961006805

$$$$
[H]OC(=O)c1c([H])c([H])c(N([H])C(=O)[C@@]([H])(N([H])[H])[C@]([H])(OC([H])([H])c2c([H])c([H])c([H])c([H])c2[H])C(=O)N([H])c2c([H])c([H])c(C(F)(F)F)c([H])c2[H])c([H])c1[H]


 41 43  0  0  0  0  0  0  0  0999 V2000
   -0.1003  -53.2328  -23.5049 C   0  0  0  0  0  0  0  0  0  0  0  0
   -1.3836  -55.1802  -22.6210 N   0  0  0  0  0  0  0  0  0  0  0  0
   -0.4138  -54.1705  -22.2740 C   0  0  0  0  0  0  0  0  0  0  0  0
   -2.3577  -54.8404  -22.4471 H   0  0  0  0  0  0  0  0  0  0  0  0
   -1.1790  -56.1300  -22.2725 H   0  0  0  0  0  0  0  0  0  0  0  0
   -1.0477  -53.4285  -21.1281 C   0  0  0  0  0  0  0  0  0  0  0  0
   -2.2501  -53.1093  -21.0731 O   0  0  0  0  0  0  0  0  0  0  0  0
   -0.1410  -53.1125  -20.0920 N   0  0  0  0  0  0  0  0  0  0  0  0
    0.8999  -53.4167  -20.2633 H   0  0  0  0  0  0  0  0  0  0  0  0
   -0.2949  -52.4675  -18.8777 C   0  0  0  0  0  0  0  0  0  0  0  0
    0.3336  -51.2542  -18.6287 C   0  0  0  0  0  0  0  0  0  0  0  0
    0.0986  -50.5524  -17.4396 C   0  0  0  0  0  0  0  0  0  0  0  0
   -0.7738  -51.0588  -16.4833 C   0  0  0  0  0  0  0  0  0  0  0  0
   -1.3953  -52.2622  -16.7260 C   0  0  0  0  0  0  0  0  0  0  0  0
   -1.1572  -52.9505  -17.9023 C   0  0  0  0  0  0  0  0  0  0  0  0
   -1.0657  -50.3120  -15.2596 C   0  0  0  0  0  0  0  0  0  0  0  0
   -1.5427  -51.0549  -14.1547 O   0  0  0  0  0  0  0  0  0  0  0  0
   -0.9202  -49.0994  -15.1439 O   0  0  0  0  0  0  0  0  0  0  0  0
   -0.8107  -51.5995  -13.6557 H   0  0  0  0  0  0  0  0  0  0  0  0
    0.9714  -52.3866  -22.8869 C   0  0  0  0  0  0  0  0  0  0  0  0
    2.0047  -52.7758  -22.3494 O   0  0  0  0  0  0  0  0  0  0  0  0
    0.7219  -50.9738  -22.9894 N   0  0  0  0  0  0  0  0  0  0  0  0
   -0.2246  -50.6818  -23.4401 H   0  0  0  0  0  0  0  0  0  0  0  0
    1.5350  -49.9220  -22.5727 C   0  0  0  0  0  0  0  0  0  0  0  0
    1.1691  -49.2816  -21.3659 C   0  0  0  0  0  0  0  0  0  0  0  0
    1.9025  -48.2352  -20.8962 C   0  0  0  0  0  0  0  0  0  0  0  0
    3.0178  -47.7519  -21.5567 C   0  0  0  0  0  0  0  0  0  0  0  0
    3.3545  -48.3847  -22.7196 C   0  0  0  0  0  0  0  0  0  0  0  0
    2.6322  -49.4558  -23.2318 C   0  0  0  0  0  0  0  0  0  0  0  0
    3.7476  -46.5827  -20.9539 C   0  0  0  0  0  0  0  0  0  0  0  0
    3.4895  -45.5000  -21.7628 F   0  0  0  0  0  0  0  0  0  0  0  0
    3.1863  -46.4020  -19.7091 F   0  0  0  0  0  0  0  0  0  0  0  0
    5.0721  -46.8664  -20.8787 F   0  0  0  0  0  0  0  0  0  0  0  0
    0.5239  -54.1111  -24.3904 O   0  0  0  0  0  0  0  0  0  0  0  0
   -0.0959  -54.5686  -25.4556 C   0  0  0  0  0  0  0  0  0  0  0  0
   -0.2991  -53.8181  -26.7104 C   0  0  0  0  0  0  0  0  0  0  0  0
    0.6289  -54.0532  -27.7594 C   0  0  0  0  0  0  0  0  0  0  0  0
    0.5828  -53.4594  -28.9658 C   0  0  0  0  0  0  0  0  0  0  0  0
   -0.4187  -52.5677  -29.2265 C   0  0  0  0  0  0  0  0  0  0  0  0
   -1.3512  -52.3130  -28.2130 C   0  0  0  0  0  0  0  0  0  0  0  0
   -1.2927  -52.9226  -26.9866 C   0  0  0  0  0  0  0  0  0  0  0  0
  2  3  1  0  0  0
  3  1  1  0  0  0
  1 34  1  0  0  0
 34 35  1  0  0  0
 35 36  1  0  0  0
 36 37  2  0  0  0
 37 38  1  0  0  0
 38 39  2  0  0  0
 39 40  1  0  0  0
 40 41  2  0  0  0
  1 20  1  0  0  0
 20 21  2  0  0  0
 20 22  1  0  0  0
 22 24  1  0  0  0
 24 25  2  0  0  0
 25 26  1  0  0  0
 26 27  2  0  0  0
 27 28  1  0  0  0
 28 29  2  0  0  0
 27 30  1  0  0  0
 30 31  1  0  0  0
 30 32  1  0  0  0
 30 33  1  0  0  0
  3  6  1  0  0  0
  6  7  2  0  0  0
  6  8  1  0  0  0
  8 10  1  0  0  0
 10 11  2  0  0  0
 11 12  1  0  0  0
 12 13  2  0  0  0
 13 14  1  0  0  0
 14 15  2  0  0  0
 13 16  1  0  0  0
 16 17  1  0  0  0
 16 18  2  0  0  0
 41 36  1  0  0  0
 29 24  1  0  0  0
 15 10  1  0  0  0
  2  4  1  0  0  0
  2  5  1  0  0  0
 22 23  1  0  0  0
  8  9  1  0  0  0
 17 19  1  0  0  0
M  END
> <minimizedAffinity>
-7.61734

> <CNNscore>
0.5347537398

> <CNNaffinity>
6.7747507095

> <CNN_VS>
3.6228232384

> <CNNaffinity_variance>
0.2378590107

$$$$
[H]OC(=O)c1c([H])c([H])c(N([H])C(=O)[C@@]([H])(N([H])[H])[C@]([H])(OC([H])([H])c2c([H])c([H])c([H])c([H])c2[H])C(=O)N([H])c2c([H])c([H])c(C(F)(F)F)c([H])c2[H])c([H])c1[H]


 41 43  0  0  0  0  0  0  0  0999 V2000
   -0.3772  -52.5037  -23.2745 C   0  0  0  0  0  0  0  0  0  0  0  0
   -0.9262  -54.8918  -22.8097 N   0  0  0  0  0  0  0  0  0  0  0  0
   -0.1918  -53.7498  -22.3229 C   0  0  0  0  0  0  0  0  0  0  0  0
   -1.8991  -54.9040  -22.4251 H   0  0  0  0  0  0  0  0  0  0  0  0
   -0.4241  -55.7926  -22.7678 H   0  0  0  0  0  0  0  0  0  0  0  0
   -0.7488  -53.5132  -20.9447 C   0  0  0  0  0  0  0  0  0  0  0  0
   -1.7631  -54.0726  -20.4880 O   0  0  0  0  0  0  0  0  0  0  0  0
   -0.0072  -52.5761  -20.1914 N   0  0  0  0  0  0  0  0  0  0  0  0
    0.8501  -52.1243  -20.7075 H   0  0  0  0  0  0  0  0  0  0  0  0
   -0.1504  -52.0850  -18.9059 C   0  0  0  0  0  0  0  0  0  0  0  0
    0.4026  -50.8639  -18.5420 C   0  0  0  0  0  0  0  0  0  0  0  0
    0.1734  -50.3198  -17.2719 C   0  0  0  0  0  0  0  0  0  0  0  0
   -0.6173  -50.9940  -16.3488 C   0  0  0  0  0  0  0  0  0  0  0  0
   -1.1637  -52.2054  -16.7055 C   0  0  0  0  0  0  0  0  0  0  0  0
   -0.9317  -52.7375  -17.9614 C   0  0  0  0  0  0  0  0  0  0  0  0
   -0.9046  -50.4134  -15.0371 C   0  0  0  0  0  0  0  0  0  0  0  0
   -0.3531  -51.0693  -13.9119 O   0  0  0  0  0  0  0  0  0  0  0  0
   -1.5847  -49.4069  -14.8657 O   0  0  0  0  0  0  0  0  0  0  0  0
    0.6632  -50.8994  -13.7719 H   0  0  0  0  0  0  0  0  0  0  0  0
    1.0625  -52.2413  -23.5988 C   0  0  0  0  0  0  0  0  0  0  0  0
    1.9513  -53.0749  -23.7510 O   0  0  0  0  0  0  0  0  0  0  0  0
    1.3713  -50.8465  -23.7658 N   0  0  0  0  0  0  0  0  0  0  0  0
    0.5584  -50.1464  -23.5832 H   0  0  0  0  0  0  0  0  0  0  0  0
    2.5883  -50.2693  -24.1219 C   0  0  0  0  0  0  0  0  0  0  0  0
    2.7929  -50.0284  -25.5005 C   0  0  0  0  0  0  0  0  0  0  0  0
    3.9613  -49.4803  -25.9340 C   0  0  0  0  0  0  0  0  0  0  0  0
    4.9877  -49.1378  -25.0720 C   0  0  0  0  0  0  0  0  0  0  0  0
    4.7698  -49.3778  -23.7451 C   0  0  0  0  0  0  0  0  0  0  0  0
    3.5914  -49.9351  -23.2631 C   0  0  0  0  0  0  0  0  0  0  0  0
    6.2409  -48.5492  -25.6604 C   0  0  0  0  0  0  0  0  0  0  0  0
    7.2282  -49.4950  -25.5064 F   0  0  0  0  0  0  0  0  0  0  0  0
    5.9625  -48.3526  -26.9950 F   0  0  0  0  0  0  0  0  0  0  0  0
    6.5360  -47.3872  -25.0254 F   0  0  0  0  0  0  0  0  0  0  0  0
   -0.9578  -53.0814  -24.4034 O   0  0  0  0  0  0  0  0  0  0  0  0
   -1.2891  -52.3597  -25.4510 C   0  0  0  0  0  0  0  0  0  0  0  0
   -0.7835  -52.5672  -26.8222 C   0  0  0  0  0  0  0  0  0  0  0  0
   -1.7377  -52.5301  -27.8734 C   0  0  0  0  0  0  0  0  0  0  0  0
   -1.4438  -52.6922  -29.1763 C   0  0  0  0  0  0  0  0  0  0  0  0
   -0.1443  -52.9042  -29.5400 C   0  0  0  0  0  0  0  0  0  0  0  0
    0.8223  -52.9464  -28.5274 C   0  0  0  0  0  0  0  0  0  0  0  0
    0.5105  -52.7821  -27.2027 C   0  0  0  0  0  0  0  0  0  0  0  0
  2  3  1  0  0  0
  3  1  1  0  0  0
  1 34  1  0  0  0
 34 35  1  0  0  0
 35 36  1  0  0  0
 36 37  2  0  0  0
 37 38  1  0  0  0
 38 39  2  0  0  0
 39 40  1  0  0  0
 40 41  2  0  0  0
  1 20  1  0  0  0
 20 21  2  0  0  0
 20 22  1  0  0  0
 22 24  1  0  0  0
 24 25  2  0  0  0
 25 26  1  0  0  0
 26 27  2  0  0  0
 27 28  1  0  0  0
 28 29  2  0  0  0
 27 30  1  0  0  0
 30 31  1  0  0  0
 30 32  1  0  0  0
 30 33  1  0  0  0
  3  6  1  0  0  0
  6  7  2  0  0  0
  6  8  1  0  0  0
  8 10  1  0  0  0
 10 11  2  0  0  0
 11 12  1  0  0  0
 12 13  2  0  0  0
 13 14  1  0  0  0
 14 15  2  0  0  0
 13 16  1  0  0  0
 16 17  1  0  0  0
 16 18  2  0  0  0
 41 36  1  0  0  0
 29 24  1  0  0  0
 15 10  1  0  0  0
  2  4  1  0  0  0
  2  5  1  0  0  0
 22 23  1  0  0  0
  8  9  1  0  0  0
 17 19  1  0  0  0
M  END
> <minimizedAffinity>
-8.09212

> <CNNscore>
0.5002692938

> <CNNaffinity>
6.4696898460

> <CNN_VS>
3.2365872860

> <CNNaffinity_variance>
0.1503058970

$$$$
[H]OC(=O)c1c([H])c([H])c(N([H])C(=O)[C@@]([H])(N([H])[H])[C@]([H])(OC([H])([H])c2c([H])c([H])c([H])c([H])c2[H])C(=O)N([H])c2c([H])c([H])c(C(F)(F)F)c([H])c2[H])c([H])c1[H]


 41 43  0  0  0  0  0  0  0  0999 V2000
    0.0555  -52.9478  -19.3536 C   0  0  0  0  0  0  0  0  0  0  0  0
   -2.0465  -53.9850  -20.2058 N   0  0  0  0  0  0  0  0  0  0  0  0
   -0.9870  -53.0630  -20.5338 C   0  0  0  0  0  0  0  0  0  0  0  0
   -1.8004  -54.9589  -20.4984 H   0  0  0  0  0  0  0  0  0  0  0  0
   -2.9980  -53.6756  -20.4593 H   0  0  0  0  0  0  0  0  0  0  0  0
   -0.3798  -53.6301  -21.7888 C   0  0  0  0  0  0  0  0  0  0  0  0
    0.0640  -54.7885  -21.8968 O   0  0  0  0  0  0  0  0  0  0  0  0
   -0.3513  -52.7141  -22.8639 N   0  0  0  0  0  0  0  0  0  0  0  0
   -0.7421  -51.7120  -22.6437 H   0  0  0  0  0  0  0  0  0  0  0  0
    0.0932  -52.8171  -24.1700 C   0  0  0  0  0  0  0  0  0  0  0  0
    1.4481  -52.9210  -24.4572 C   0  0  0  0  0  0  0  0  0  0  0  0
    1.8921  -53.1259  -25.7697 C   0  0  0  0  0  0  0  0  0  0  0  0
    0.9803  -53.2318  -26.8134 C   0  0  0  0  0  0  0  0  0  0  0  0
   -0.3624  -53.1261  -26.5321 C   0  0  0  0  0  0  0  0  0  0  0  0
   -0.7935  -52.9221  -25.2334 C   0  0  0  0  0  0  0  0  0  0  0  0
    1.4285  -53.4951  -28.1810 C   0  0  0  0  0  0  0  0  0  0  0  0
    0.7461  -52.8198  -29.2195 O   0  0  0  0  0  0  0  0  0  0  0  0
    2.3475  -54.2553  -28.4681 O   0  0  0  0  0  0  0  0  0  0  0  0
    1.0036  -51.8173  -29.3210 H   0  0  0  0  0  0  0  0  0  0  0  0
    1.0958  -52.1163  -20.0413 C   0  0  0  0  0  0  0  0  0  0  0  0
    2.2513  -52.4412  -20.3007 O   0  0  0  0  0  0  0  0  0  0  0  0
    0.6241  -50.8183  -20.4428 N   0  0  0  0  0  0  0  0  0  0  0  0
   -0.3947  -50.5645  -20.1563 H   0  0  0  0  0  0  0  0  0  0  0  0
    1.3107  -49.8306  -21.1456 C   0  0  0  0  0  0  0  0  0  0  0  0
    1.4254  -48.5705  -20.5136 C   0  0  0  0  0  0  0  0  0  0  0  0
    2.0687  -47.5466  -21.1389 C   0  0  0  0  0  0  0  0  0  0  0  0
    2.6313  -47.6780  -22.3959 C   0  0  0  0  0  0  0  0  0  0  0  0
    2.5102  -48.9028  -22.9885 C   0  0  0  0  0  0  0  0  0  0  0  0
    1.8618  -49.9727  -22.3833 C   0  0  0  0  0  0  0  0  0  0  0  0
    3.3087  -46.4776  -22.9985 C   0  0  0  0  0  0  0  0  0  0  0  0
    3.9297  -46.9129  -24.1465 F   0  0  0  0  0  0  0  0  0  0  0  0
    2.2938  -45.5969  -23.3010 F   0  0  0  0  0  0  0  0  0  0  0  0
    4.1851  -45.9563  -22.1037 F   0  0  0  0  0  0  0  0  0  0  0  0
   -0.6115  -52.1166  -18.4540 O   0  0  0  0  0  0  0  0  0  0  0  0
   -0.9261  -52.5252  -17.2448 C   0  0  0  0  0  0  0  0  0  0  0  0
   -2.1266  -52.1118  -16.4918 C   0  0  0  0  0  0  0  0  0  0  0  0
   -3.3142  -52.8587  -16.7119 C   0  0  0  0  0  0  0  0  0  0  0  0
   -4.4896  -52.6195  -16.1025 C   0  0  0  0  0  0  0  0  0  0  0  0
   -4.5717  -51.5956  -15.2021 C   0  0  0  0  0  0  0  0  0  0  0  0
   -3.4180  -50.8388  -14.9616 C   0  0  0  0  0  0  0  0  0  0  0  0
   -2.2263  -51.0905  -15.5904 C   0  0  0  0  0  0  0  0  0  0  0  0
  2  3  1  0  0  0
  3  1  1  0  0  0
  1 34  1  0  0  0
 34 35  1  0  0  0
 35 36  1  0  0  0
 36 37  2  0  0  0
 37 38  1  0  0  0
 38 39  2  0  0  0
 39 40  1  0  0  0
 40 41  2  0  0  0
  1 20  1  0  0  0
 20 21  2  0  0  0
 20 22  1  0  0  0
 22 24  1  0  0  0
 24 25  2  0  0  0
 25 26  1  0  0  0
 26 27  2  0  0  0
 27 28  1  0  0  0
 28 29  2  0  0  0
 27 30  1  0  0  0
 30 31  1  0  0  0
 30 32  1  0  0  0
 30 33  1  0  0  0
  3  6  1  0  0  0
  6  7  2  0  0  0
  6  8  1  0  0  0
  8 10  1  0  0  0
 10 11  2  0  0  0
 11 12  1  0  0  0
 12 13  2  0  0  0
 13 14  1  0  0  0
 14 15  2  0  0  0
 13 16  1  0  0  0
 16 17  1  0  0  0
 16 18  2  0  0  0
 41 36  1  0  0  0
 29 24  1  0  0  0
 15 10  1  0  0  0
  2  4  1  0  0  0
  2  5  1  0  0  0
 22 23  1  0  0  0
  8  9  1  0  0  0
 17 19  1  0  0  0
M  END
> <minimizedAffinity>
-8.80694

> <CNNscore>
0.4883657396

> <CNNaffinity>
6.5766983032

> <CNN_VS>
3.2118341923

> <CNNaffinity_variance>
0.1312773079

$$$$
[H]OC(=O)c1c([H])c([H])c(N([H])C(=O)[C@@]([H])(N([H])[H])[C@]([H])(OC([H])([H])c2c([H])c([H])c([H])c([H])c2[H])C(=O)N([H])c2c([H])c([H])c(C(F)(F)F)c([H])c2[H])c([H])c1[H]


 41 43  0  0  0  0  0  0  0  0999 V2000
    1.0845  -51.5422  -21.0302 C   0  0  0  0  0  0  0  0  0  0  0  0
    0.8313  -53.8989  -20.2543 N   0  0  0  0  0  0  0  0  0  0  0  0
    0.1283  -52.7840  -20.8400 C   0  0  0  0  0  0  0  0  0  0  0  0
    1.2589  -54.5032  -20.9936 H   0  0  0  0  0  0  0  0  0  0  0  0
    0.3220  -54.4040  -19.5121 H   0  0  0  0  0  0  0  0  0  0  0  0
   -0.3903  -53.3205  -22.1471 C   0  0  0  0  0  0  0  0  0  0  0  0
   -1.1750  -54.2814  -22.2539 O   0  0  0  0  0  0  0  0  0  0  0  0
    0.1018  -52.6268  -23.2751 N   0  0  0  0  0  0  0  0  0  0  0  0
    0.8112  -51.8165  -23.0613 H   0  0  0  0  0  0  0  0  0  0  0  0
   -0.1203  -52.7708  -24.6330 C   0  0  0  0  0  0  0  0  0  0  0  0
   -0.8217  -51.8085  -25.3480 C   0  0  0  0  0  0  0  0  0  0  0  0
   -0.9603  -51.9036  -26.7385 C   0  0  0  0  0  0  0  0  0  0  0  0
   -0.3938  -52.9668  -27.4319 C   0  0  0  0  0  0  0  0  0  0  0  0
    0.2988  -53.9233  -26.7256 C   0  0  0  0  0  0  0  0  0  0  0  0
    0.4303  -53.8235  -25.3520 C   0  0  0  0  0  0  0  0  0  0  0  0
   -0.4892  -53.0516  -28.8893 C   0  0  0  0  0  0  0  0  0  0  0  0
    0.7141  -52.9102  -29.6189 O   0  0  0  0  0  0  0  0  0  0  0  0
   -1.5374  -53.2362  -29.4992 O   0  0  0  0  0  0  0  0  0  0  0  0
    1.3264  -53.7505  -29.6034 H   0  0  0  0  0  0  0  0  0  0  0  0
    0.9944  -50.9645  -19.6501 C   0  0  0  0  0  0  0  0  0  0  0  0
    1.6991  -50.0811  -19.1694 O   0  0  0  0  0  0  0  0  0  0  0  0
   -0.0683  -51.5239  -18.8588 N   0  0  0  0  0  0  0  0  0  0  0  0
   -0.6392  -52.3294  -19.3166 H   0  0  0  0  0  0  0  0  0  0  0  0
   -0.4578  -51.1747  -17.5675 C   0  0  0  0  0  0  0  0  0  0  0  0
   -0.0140  -49.9186  -17.0926 C   0  0  0  0  0  0  0  0  0  0  0  0
   -0.3384  -49.5079  -15.8358 C   0  0  0  0  0  0  0  0  0  0  0  0
   -1.1005  -50.2772  -14.9749 C   0  0  0  0  0  0  0  0  0  0  0  0
   -1.5197  -51.4862  -15.4530 C   0  0  0  0  0  0  0  0  0  0  0  0
   -1.2100  -51.9409  -16.7292 C   0  0  0  0  0  0  0  0  0  0  0  0
   -1.3897  -49.7307  -13.6034 C   0  0  0  0  0  0  0  0  0  0  0  0
   -1.3205  -50.7952  -12.7345 F   0  0  0  0  0  0  0  0  0  0  0  0
   -0.3800  -48.8297  -13.3470 F   0  0  0  0  0  0  0  0  0  0  0  0
   -2.6113  -49.1407  -13.6002 F   0  0  0  0  0  0  0  0  0  0  0  0
    2.3345  -52.1502  -21.1444 O   0  0  0  0  0  0  0  0  0  0  0  0
    3.2786  -51.6420  -21.9051 C   0  0  0  0  0  0  0  0  0  0  0  0
    3.1729  -51.4224  -23.3610 C   0  0  0  0  0  0  0  0  0  0  0  0
    3.6672  -52.4516  -24.2055 C   0  0  0  0  0  0  0  0  0  0  0  0
    3.6402  -52.4136  -25.5502 C   0  0  0  0  0  0  0  0  0  0  0  0
    3.1012  -51.3224  -26.1705 C   0  0  0  0  0  0  0  0  0  0  0  0
    2.6043  -50.2890  -25.3665 C   0  0  0  0  0  0  0  0  0  0  0  0
    2.6394  -50.3378  -23.9970 C   0  0  0  0  0  0  0  0  0  0  0  0
  2  3  1  0  0  0
  3  1  1  0  0  0
  1 34  1  0  0  0
 34 35  1  0  0  0
 35 36  1  0  0  0
 36 37  2  0  0  0
 37 38  1  0  0  0
 38 39  2  0  0  0
 39 40  1  0  0  0
 40 41  2  0  0  0
  1 20  1  0  0  0
 20 21  2  0  0  0
 20 22  1  0  0  0
 22 24  1  0  0  0
 24 25  2  0  0  0
 25 26  1  0  0  0
 26 27  2  0  0  0
 27 28  1  0  0  0
 28 29  2  0  0  0
 27 30  1  0  0  0
 30 31  1  0  0  0
 30 32  1  0  0  0
 30 33  1  0  0  0
  3  6  1  0  0  0
  6  7  2  0  0  0
  6  8  1  0  0  0
  8 10  1  0  0  0
 10 11  2  0  0  0
 11 12  1  0  0  0
 12 13  2  0  0  0
 13 14  1  0  0  0
 14 15  2  0  0  0
 13 16  1  0  0  0
 16 17  1  0  0  0
 16 18  2  0  0  0
 41 36  1  0  0  0
 29 24  1  0  0  0
 15 10  1  0  0  0
  2  4  1  0  0  0
  2  5  1  0  0  0
 22 23  1  0  0  0
  8  9  1  0  0  0
 17 19  1  0  0  0
M  END
> <minimizedAffinity>
-7.74605

> <CNNscore>
0.4087054133

> <CNNaffinity>
6.4574661255

> <CNN_VS>
2.6392014027

> <CNNaffinity_variance>
0.2388016731

$$$$
[H]OC(=O)c1c([H])c([H])c(N([H])C(=O)[C@@]([H])(N([H])[H])[C@]([H])(OC([H])([H])c2c([H])c([H])c([H])c([H])c2[H])C(=O)N([H])c2c([H])c([H])c(C(F)(F)F)c([H])c2[H])c([H])c1[H]


 41 43  0  0  0  0  0  0  0  0999 V2000
   -0.2408  -53.3617  -19.5188 C   0  0  0  0  0  0  0  0  0  0  0  0
   -2.3838  -53.9186  -20.6669 N   0  0  0  0  0  0  0  0  0  0  0  0
   -1.1507  -53.1817  -20.7965 C   0  0  0  0  0  0  0  0  0  0  0  0
   -2.2796  -54.8922  -21.0355 H   0  0  0  0  0  0  0  0  0  0  0  0
   -3.2332  -53.4192  -20.9742 H   0  0  0  0  0  0  0  0  0  0  0  0
   -0.5162  -53.7402  -22.0419 C   0  0  0  0  0  0  0  0  0  0  0  0
   -0.0752  -54.8997  -22.1499 O   0  0  0  0  0  0  0  0  0  0  0  0
   -0.4581  -52.8147  -23.1075 N   0  0  0  0  0  0  0  0  0  0  0  0
   -0.8495  -51.8128  -22.8876 H   0  0  0  0  0  0  0  0  0  0  0  0
    0.0170  -52.9080  -24.4036 C   0  0  0  0  0  0  0  0  0  0  0  0
    1.3805  -52.9626  -24.6622 C   0  0  0  0  0  0  0  0  0  0  0  0
    1.8590  -53.1578  -25.9640 C   0  0  0  0  0  0  0  0  0  0  0  0
    0.9737  -53.3033  -27.0256 C   0  0  0  0  0  0  0  0  0  0  0  0
   -0.3776  -53.2462  -26.7726 C   0  0  0  0  0  0  0  0  0  0  0  0
   -0.8429  -53.0517  -25.4843 C   0  0  0  0  0  0  0  0  0  0  0  0
    1.4596  -53.5569  -28.3820 C   0  0  0  0  0  0  0  0  0  0  0  0
    0.8034  -52.8775  -29.4346 O   0  0  0  0  0  0  0  0  0  0  0  0
    2.3887  -54.3123  -28.6486 O   0  0  0  0  0  0  0  0  0  0  0  0
    1.0601  -51.8737  -29.5232 H   0  0  0  0  0  0  0  0  0  0  0  0
    0.8282  -52.3650  -19.8511 C   0  0  0  0  0  0  0  0  0  0  0  0
    2.0427  -52.5246  -19.7636 O   0  0  0  0  0  0  0  0  0  0  0  0
    0.3177  -51.1155  -20.3477 N   0  0  0  0  0  0  0  0  0  0  0  0
   -0.7652  -51.0107  -20.3703 H   0  0  0  0  0  0  0  0  0  0  0  0
    1.0346  -50.0081  -20.7959 C   0  0  0  0  0  0  0  0  0  0  0  0
    1.5241  -50.0678  -22.1215 C   0  0  0  0  0  0  0  0  0  0  0  0
    2.2470  -49.0331  -22.6319 C   0  0  0  0  0  0  0  0  0  0  0  0
    2.5362  -47.8950  -21.9006 C   0  0  0  0  0  0  0  0  0  0  0  0
    2.0538  -47.8570  -20.6232 C   0  0  0  0  0  0  0  0  0  0  0  0
    1.3120  -48.8918  -20.0661 C   0  0  0  0  0  0  0  0  0  0  0  0
    3.3533  -46.8174  -22.5597 C   0  0  0  0  0  0  0  0  0  0  0  0
    4.3302  -46.4600  -21.6592 F   0  0  0  0  0  0  0  0  0  0  0  0
    3.9119  -47.4086  -23.6712 F   0  0  0  0  0  0  0  0  0  0  0  0
    2.5478  -45.7761  -22.8875 F   0  0  0  0  0  0  0  0  0  0  0  0
   -1.0316  -52.8024  -18.5153 O   0  0  0  0  0  0  0  0  0  0  0  0
   -0.5203  -52.4393  -17.3600 C   0  0  0  0  0  0  0  0  0  0  0  0
   -0.7577  -51.1438  -16.6933 C   0  0  0  0  0  0  0  0  0  0  0  0
   -1.8929  -51.0542  -15.8448 C   0  0  0  0  0  0  0  0  0  0  0  0
   -2.2472  -49.9524  -15.1586 C   0  0  0  0  0  0  0  0  0  0  0  0
   -1.4757  -48.8301  -15.2650 C   0  0  0  0  0  0  0  0  0  0  0  0
   -0.3482  -48.8847  -16.0940 C   0  0  0  0  0  0  0  0  0  0  0  0
    0.0016  -50.0126  -16.7902 C   0  0  0  0  0  0  0  0  0  0  0  0
  2  3  1  0  0  0
  3  1  1  0  0  0
  1 34  1  0  0  0
 34 35  1  0  0  0
 35 36  1  0  0  0
 36 37  2  0  0  0
 37 38  1  0  0  0
 38 39  2  0  0  0
 39 40  1  0  0  0
 40 41  2  0  0  0
  1 20  1  0  0  0
 20 21  2  0  0  0
 20 22  1  0  0  0
 22 24  1  0  0  0
 24 25  2  0  0  0
 25 26  1  0  0  0
 26 27  2  0  0  0
 27 28  1  0  0  0
 28 29  2  0  0  0
 27 30  1  0  0  0
 30 31  1  0  0  0
 30 32  1  0  0  0
 30 33  1  0  0  0
  3  6  1  0  0  0
  6  7  2  0  0  0
  6  8  1  0  0  0
  8 10  1  0  0  0
 10 11  2  0  0  0
 11 12  1  0  0  0
 12 13  2  0  0  0
 13 14  1  0  0  0
 14 15  2  0  0  0
 13 16  1  0  0  0
 16 17  1  0  0  0
 16 18  2  0  0  0
 41 36  1  0  0  0
 29 24  1  0  0  0
 15 10  1  0  0  0
  2  4  1  0  0  0
  2  5  1  0  0  0
 22 23  1  0  0  0
  8  9  1  0  0  0
 17 19  1  0  0  0
M  END
> <minimizedAffinity>
-8.47280

> <CNNscore>
0.3523655534

> <CNNaffinity>
6.4664163589

> <CNN_VS>
2.2785422802

> <CNNaffinity_variance>
0.1142480522

$$$$
[H]OC(=O)c1c([H])c([H])c(N([H])C(=O)[C@@]([H])(N([H])[H])[C@]([H])(OC([H])([H])c2c([H])c([H])c([H])c([H])c2[H])C(=O)N([H])c2c([H])c([H])c(C(F)(F)F)c([H])c2[H])c([H])c1[H]


 41 43  0  0  0  0  0  0  0  0999 V2000
    0.2650  -52.3762  -19.9265 C   0  0  0  0  0  0  0  0  0  0  0  0
   -1.6703  -53.9490  -19.9591 N   0  0  0  0  0  0  0  0  0  0  0  0
   -0.9895  -52.9248  -20.7127 C   0  0  0  0  0  0  0  0  0  0  0  0
   -1.2809  -54.8956  -20.1755 H   0  0  0  0  0  0  0  0  0  0  0  0
   -2.7006  -53.8863  -19.9559 H   0  0  0  0  0  0  0  0  0  0  0  0
   -0.6126  -53.6042  -22.0018 C   0  0  0  0  0  0  0  0  0  0  0  0
   -0.3857  -54.8232  -22.1168 O   0  0  0  0  0  0  0  0  0  0  0  0
   -0.5326  -52.7207  -23.1011 N   0  0  0  0  0  0  0  0  0  0  0  0
   -0.7234  -51.6634  -22.8748 H   0  0  0  0  0  0  0  0  0  0  0  0
   -0.2410  -52.9155  -24.4394 C   0  0  0  0  0  0  0  0  0  0  0  0
    0.0307  -51.8400  -25.2752 C   0  0  0  0  0  0  0  0  0  0  0  0
    0.4237  -52.0424  -26.6042 C   0  0  0  0  0  0  0  0  0  0  0  0
    0.5518  -53.3296  -27.1128 C   0  0  0  0  0  0  0  0  0  0  0  0
    0.2801  -54.3969  -26.2879 C   0  0  0  0  0  0  0  0  0  0  0  0
   -0.1091  -54.1892  -24.9766 C   0  0  0  0  0  0  0  0  0  0  0  0
    1.0091  -53.5555  -28.4840 C   0  0  0  0  0  0  0  0  0  0  0  0
    0.4220  -52.7585  -29.4941 O   0  0  0  0  0  0  0  0  0  0  0  0
    1.8589  -54.3830  -28.7969 O   0  0  0  0  0  0  0  0  0  0  0  0
    0.7763  -51.7814  -29.5297 H   0  0  0  0  0  0  0  0  0  0  0  0
    0.6309  -51.2407  -20.8339 C   0  0  0  0  0  0  0  0  0  0  0  0
   -0.0845  -50.3008  -21.1698 O   0  0  0  0  0  0  0  0  0  0  0  0
    1.9873  -51.2960  -21.3091 N   0  0  0  0  0  0  0  0  0  0  0  0
    2.5676  -52.1679  -21.0136 H   0  0  0  0  0  0  0  0  0  0  0  0
    2.6569  -50.3776  -22.1149 C   0  0  0  0  0  0  0  0  0  0  0  0
    2.6818  -50.6552  -23.5014 C   0  0  0  0  0  0  0  0  0  0  0  0
    3.3277  -49.8156  -24.3566 C   0  0  0  0  0  0  0  0  0  0  0  0
    3.9797  -48.6733  -23.9276 C   0  0  0  0  0  0  0  0  0  0  0  0
    3.9431  -48.4231  -22.5852 C   0  0  0  0  0  0  0  0  0  0  0  0
    3.2945  -49.2550  -21.6804 C   0  0  0  0  0  0  0  0  0  0  0  0
    4.6716  -47.8228  -24.9576 C   0  0  0  0  0  0  0  0  0  0  0  0
    3.7326  -46.9330  -25.4263 F   0  0  0  0  0  0  0  0  0  0  0  0
    5.6691  -47.1605  -24.2768 F   0  0  0  0  0  0  0  0  0  0  0  0
    5.1664  -48.6161  -25.9406 F   0  0  0  0  0  0  0  0  0  0  0  0
   -0.3216  -51.8245  -18.7878 O   0  0  0  0  0  0  0  0  0  0  0  0
    0.4032  -51.4270  -17.7656 C   0  0  0  0  0  0  0  0  0  0  0  0
    1.6296  -50.6106  -17.8578 C   0  0  0  0  0  0  0  0  0  0  0  0
    1.4606  -49.2082  -18.0050 C   0  0  0  0  0  0  0  0  0  0  0  0
    2.4704  -48.3237  -18.0955 C   0  0  0  0  0  0  0  0  0  0  0  0
    3.7567  -48.7801  -18.0404 C   0  0  0  0  0  0  0  0  0  0  0  0
    3.9586  -50.1584  -17.8955 C   0  0  0  0  0  0  0  0  0  0  0  0
    2.9216  -51.0505  -17.8065 C   0  0  0  0  0  0  0  0  0  0  0  0
  2  3  1  0  0  0
  3  1  1  0  0  0
  1 34  1  0  0  0
 34 35  1  0  0  0
 35 36  1  0  0  0
 36 37  2  0  0  0
 37 38  1  0  0  0
 38 39  2  0  0  0
 39 40  1  0  0  0
 40 41  2  0  0  0
  1 20  1  0  0  0
 20 21  2  0  0  0
 20 22  1  0  0  0
 22 24  1  0  0  0
 24 25  2  0  0  0
 25 26  1  0  0  0
 26 27  2  0  0  0
 27 28  1  0  0  0
 28 29  2  0  0  0
 27 30  1  0  0  0
 30 31  1  0  0  0
 30 32  1  0  0  0
 30 33  1  0  0  0
  3  6  1  0  0  0
  6  7  2  0  0  0
  6  8  1  0  0  0
  8 10  1  0  0  0
 10 11  2  0  0  0
 11 12  1  0  0  0
 12 13  2  0  0  0
 13 14  1  0  0  0
 14 15  2  0  0  0
 13 16  1  0  0  0
 16 17  1  0  0  0
 16 18  2  0  0  0
 41 36  1  0  0  0
 29 24  1  0  0  0
 15 10  1  0  0  0
  2  4  1  0  0  0
  2  5  1  0  0  0
 22 23  1  0  0  0
  8  9  1  0  0  0
 17 19  1  0  0  0
M  END
> <minimizedAffinity>
-7.68452

> <CNNscore>
0.2978622019

> <CNNaffinity>
6.4245214462

> <CNN_VS>
1.9136221409

> <CNNaffinity_variance>
0.3234300017

$$$$
[H]OC(=O)c1c([H])c([H])c(N([H])C(=O)[C@@]([H])(N([H])[H])[C@]([H])(OC([H])([H])c2c([H])c([H])c([H])c([H])c2[H])C(=O)N([H])c2c([H])c([H])c(C(F)(F)F)c([H])c2[H])c([H])c1[H]


 41 43  0  0  0  0  0  0  0  0999 V2000
    0.1454  -52.1306  -20.8139 C   0  0  0  0  0  0  0  0  0  0  0  0
    0.2467  -54.5660  -20.2856 N   0  0  0  0  0  0  0  0  0  0  0  0
   -0.5876  -53.5287  -20.8409 C   0  0  0  0  0  0  0  0  0  0  0  0
    0.8403  -55.0066  -21.0259 H   0  0  0  0  0  0  0  0  0  0  0  0
   -0.2298  -55.2264  -19.6514 H   0  0  0  0  0  0  0  0  0  0  0  0
   -0.8816  -54.0009  -22.2395 C   0  0  0  0  0  0  0  0  0  0  0  0
   -1.4616  -55.0673  -22.5168 O   0  0  0  0  0  0  0  0  0  0  0  0
   -0.4308  -53.1115  -23.2401 N   0  0  0  0  0  0  0  0  0  0  0  0
    0.0942  -52.2175  -22.8788 H   0  0  0  0  0  0  0  0  0  0  0  0
   -0.5033  -53.1420  -24.6214 C   0  0  0  0  0  0  0  0  0  0  0  0
   -1.0596  -52.0855  -25.3310 C   0  0  0  0  0  0  0  0  0  0  0  0
   -1.0426  -52.0707  -26.7314 C   0  0  0  0  0  0  0  0  0  0  0  0
   -0.4639  -53.1171  -27.4400 C   0  0  0  0  0  0  0  0  0  0  0  0
    0.0850  -54.1666  -26.7396 C   0  0  0  0  0  0  0  0  0  0  0  0
    0.0631  -54.1751  -25.3563 C   0  0  0  0  0  0  0  0  0  0  0  0
   -0.3957  -53.0901  -28.9012 C   0  0  0  0  0  0  0  0  0  0  0  0
    0.8835  -52.9183  -29.4793 O   0  0  0  0  0  0  0  0  0  0  0  0
   -1.3708  -53.2073  -29.6364 O   0  0  0  0  0  0  0  0  0  0  0  0
    1.4805  -53.7696  -29.4605 H   0  0  0  0  0  0  0  0  0  0  0  0
    0.1132  -51.8785  -19.3368 C   0  0  0  0  0  0  0  0  0  0  0  0
   -0.4828  -52.5339  -18.4863 O   0  0  0  0  0  0  0  0  0  0  0  0
    0.9067  -50.7513  -18.9265 N   0  0  0  0  0  0  0  0  0  0  0  0
    1.3840  -50.1814  -19.7213 H   0  0  0  0  0  0  0  0  0  0  0  0
    1.1362  -50.2827  -17.6347 C   0  0  0  0  0  0  0  0  0  0  0  0
    2.3459  -50.6858  -17.0228 C   0  0  0  0  0  0  0  0  0  0  0  0
    2.6399  -50.2835  -15.7559 C   0  0  0  0  0  0  0  0  0  0  0  0
    1.7930  -49.4788  -15.0149 C   0  0  0  0  0  0  0  0  0  0  0  0
    0.6306  -49.1001  -15.6243 C   0  0  0  0  0  0  0  0  0  0  0  0
    0.2944  -49.4891  -16.9154 C   0  0  0  0  0  0  0  0  0  0  0  0
    2.2120  -49.1037  -13.6197 C   0  0  0  0  0  0  0  0  0  0  0  0
    1.9996  -50.2136  -12.8347 F   0  0  0  0  0  0  0  0  0  0  0  0
    3.5573  -48.8204  -13.7042 F   0  0  0  0  0  0  0  0  0  0  0  0
    1.4913  -48.0322  -13.2039 F   0  0  0  0  0  0  0  0  0  0  0  0
    1.4541  -52.4799  -21.1464 O   0  0  0  0  0  0  0  0  0  0  0  0
    2.2429  -51.6512  -21.7938 C   0  0  0  0  0  0  0  0  0  0  0  0
    2.5188  -51.6956  -23.2433 C   0  0  0  0  0  0  0  0  0  0  0  0
    2.0830  -50.5870  -24.0166 C   0  0  0  0  0  0  0  0  0  0  0  0
    2.2614  -50.4662  -25.3446 C   0  0  0  0  0  0  0  0  0  0  0  0
    2.9074  -51.4632  -26.0189 C   0  0  0  0  0  0  0  0  0  0  0  0
    3.3505  -52.5712  -25.2858 C   0  0  0  0  0  0  0  0  0  0  0  0
    3.1609  -52.6844  -23.9329 C   0  0  0  0  0  0  0  0  0  0  0  0
  2  3  1  0  0  0
  3  1  1  0  0  0
  1 34  1  0  0  0
 34 35  1  0  0  0
 35 36  1  0  0  0
 36 37  2  0  0  0
 37 38  1  0  0  0
 38 39  2  0  0  0
 39 40  1  0  0  0
 40 41  2  0  0  0
  1 20  1  0  0  0
 20 21  2  0  0  0
 20 22  1  0  0  0
 22 24  1  0  0  0
 24 25  2  0  0  0
 25 26  1  0  0  0
 26 27  2  0  0  0
 27 28  1  0  0  0
 28 29  2  0  0  0
 27 30  1  0  0  0
 30 31  1  0  0  0
 30 32  1  0  0  0
 30 33  1  0  0  0
  3  6  1  0  0  0
  6  7  2  0  0  0
  6  8  1  0  0  0
  8 10  1  0  0  0
 10 11  2  0  0  0
 11 12  1  0  0  0
 12 13  2  0  0  0
 13 14  1  0  0  0
 14 15  2  0  0  0
 13 16  1  0  0  0
 16 17  1  0  0  0
 16 18  2  0  0  0
 41 36  1  0  0  0
 29 24  1  0  0  0
 15 10  1  0  0  0
  2  4  1  0  0  0
  2  5  1  0  0  0
 22 23  1  0  0  0
  8  9  1  0  0  0
 17 19  1  0  0  0
M  END
> <minimizedAffinity>
-8.40034

> <CNNscore>
0.2911734879

> <CNNaffinity>
6.2876758575

> <CNN_VS>
1.8308044672

> <CNNaffinity_variance>
0.1177871004

$$$$
[H]OC(=O)c1c([H])c([H])c(N([H])C(=O)[C@@]([H])(N([H])[H])[C@]([H])(OC([H])([H])c2c([H])c([H])c([H])c([H])c2[H])C(=O)N([H])c2c([H])c([H])c(C(F)(F)F)c([H])c2[H])c([H])c1[H]


 41 43  0  0  0  0  0  0  0  0999 V2000
   -0.0549  -52.6010  -22.3726 C   0  0  0  0  0  0  0  0  0  0  0  0
   -0.7004  -54.4234  -20.7970 N   0  0  0  0  0  0  0  0  0  0  0  0
    0.3928  -53.5832  -21.2203 C   0  0  0  0  0  0  0  0  0  0  0  0
   -1.2445  -53.9714  -20.0261 H   0  0  0  0  0  0  0  0  0  0  0  0
   -0.4637  -55.4167  -20.6460 H   0  0  0  0  0  0  0  0  0  0  0  0
    0.8056  -52.8564  -19.9686 C   0  0  0  0  0  0  0  0  0  0  0  0
    1.9854  -52.6326  -19.6392 O   0  0  0  0  0  0  0  0  0  0  0  0
   -0.2856  -52.4394  -19.1742 N   0  0  0  0  0  0  0  0  0  0  0  0
   -1.2791  -52.7188  -19.5486 H   0  0  0  0  0  0  0  0  0  0  0  0
   -0.3628  -51.7445  -17.9803 C   0  0  0  0  0  0  0  0  0  0  0  0
   -0.9268  -52.3246  -16.8514 C   0  0  0  0  0  0  0  0  0  0  0  0
   -0.9148  -51.6604  -15.6184 C   0  0  0  0  0  0  0  0  0  0  0  0
   -0.3334  -50.4033  -15.5010 C   0  0  0  0  0  0  0  0  0  0  0  0
    0.2232  -49.8249  -16.6185 C   0  0  0  0  0  0  0  0  0  0  0  0
    0.2063  -50.4864  -17.8335 C   0  0  0  0  0  0  0  0  0  0  0  0
   -0.2705  -49.7205  -14.2086 C   0  0  0  0  0  0  0  0  0  0  0  0
    0.9318  -49.8484  -13.4749 O   0  0  0  0  0  0  0  0  0  0  0  0
   -1.1876  -49.0553  -13.7381 O   0  0  0  0  0  0  0  0  0  0  0  0
    1.7150  -49.2634  -13.8295 H   0  0  0  0  0  0  0  0  0  0  0  0
    1.1615  -51.7265  -22.4198 C   0  0  0  0  0  0  0  0  0  0  0  0
    2.2637  -52.0148  -22.8781 O   0  0  0  0  0  0  0  0  0  0  0  0
    0.9468  -50.4101  -21.8818 N   0  0  0  0  0  0  0  0  0  0  0  0
   -0.0350  -50.2171  -21.4540 H   0  0  0  0  0  0  0  0  0  0  0  0
    1.8430  -49.3448  -21.8253 C   0  0  0  0  0  0  0  0  0  0  0  0
    2.0134  -48.7298  -20.5632 C   0  0  0  0  0  0  0  0  0  0  0  0
    2.8599  -47.6726  -20.4251 C   0  0  0  0  0  0  0  0  0  0  0  0
    3.5818  -47.1537  -21.4850 C   0  0  0  0  0  0  0  0  0  0  0  0
    3.4035  -47.7623  -22.6948 C   0  0  0  0  0  0  0  0  0  0  0  0
    2.5494  -48.8434  -22.8766 C   0  0  0  0  0  0  0  0  0  0  0  0
    4.4796  -45.9756  -21.2220 C   0  0  0  0  0  0  0  0  0  0  0  0
    3.6835  -44.9865  -20.6919 F   0  0  0  0  0  0  0  0  0  0  0  0
    5.3947  -46.4123  -20.2899 F   0  0  0  0  0  0  0  0  0  0  0  0
    5.0749  -45.5936  -22.3797 F   0  0  0  0  0  0  0  0  0  0  0  0
   -0.0143  -53.4285  -23.4946 O   0  0  0  0  0  0  0  0  0  0  0  0
   -0.8601  -53.2784  -24.4897 C   0  0  0  0  0  0  0  0  0  0  0  0
   -0.5110  -53.3518  -25.9222 C   0  0  0  0  0  0  0  0  0  0  0  0
   -1.1860  -52.4591  -26.7965 C   0  0  0  0  0  0  0  0  0  0  0  0
   -0.9806  -52.3910  -28.1244 C   0  0  0  0  0  0  0  0  0  0  0  0
   -0.0611  -53.2245  -28.6952 C   0  0  0  0  0  0  0  0  0  0  0  0
    0.6227  -54.1175  -27.8608 C   0  0  0  0  0  0  0  0  0  0  0  0
    0.4033  -54.1795  -26.5091 C   0  0  0  0  0  0  0  0  0  0  0  0
  2  3  1  0  0  0
  3  1  1  0  0  0
  1 34  1  0  0  0
 34 35  1  0  0  0
 35 36  1  0  0  0
 36 37  2  0  0  0
 37 38  1  0  0  0
 38 39  2  0  0  0
 39 40  1  0  0  0
 40 41  2  0  0  0
  1 20  1  0  0  0
 20 21  2  0  0  0
 20 22  1  0  0  0
 22 24  1  0  0  0
 24 25  2  0  0  0
 25 26  1  0  0  0
 26 27  2  0  0  0
 27 28  1  0  0  0
 28 29  2  0  0  0
 27 30  1  0  0  0
 30 31  1  0  0  0
 30 32  1  0  0  0
 30 33  1  0  0  0
  3  6  1  0  0  0
  6  7  2  0  0  0
  6  8  1  0  0  0
  8 10  1  0  0  0
 10 11  2  0  0  0
 11 12  1  0  0  0
 12 13  2  0  0  0
 13 14  1  0  0  0
 14 15  2  0  0  0
 13 16  1  0  0  0
 16 17  1  0  0  0
 16 18  2  0  0  0
 41 36  1  0  0  0
 29 24  1  0  0  0
 15 10  1  0  0  0
  2  4  1  0  0  0
  2  5  1  0  0  0
 22 23  1  0  0  0
  8  9  1  0  0  0
 17 19  1  0  0  0
M  END
> <minimizedAffinity>
-7.42801

> <CNNscore>
0.2658785284

> <CNNaffinity>
6.3071527481

> <CNN_VS>
1.6769365072

> <CNNaffinity_variance>
0.0887465850

$$$$
[H]N=C(N([H])[H])N([H])C([H])([H])C([H])([H])C([H])([H])[C@@]([H])(C(=O)N([H])[C@]([H])(C(=O)N([H])[C@]([H])(C(=O)N([H])[H])C([H])([H])c1c([H])c([H])c([H])c([H])c1[H])C([H])([H])C([H])(C([H])([H])[H])C([H])([H])[H])N([H])C(=O)C([H])([H])[H]


 43 43  0  0  0  0  0  0  0  0999 V2000
   -0.0563  -51.7969  -25.4977 C   0  0  0  0  0  0  0  0  0  0  0  0
    2.0824  -50.5291  -25.0168 C   0  0  0  0  0  0  0  0  0  0  0  0
    1.7459  -50.4845  -23.7720 O   0  0  0  0  0  0  0  0  0  0  0  0
    1.1991  -51.2043  -25.8923 N   0  0  0  0  0  0  0  0  0  0  0  0
    1.4712  -51.2860  -26.9155 H   0  0  0  0  0  0  0  0  0  0  0  0
    3.3242  -49.8671  -25.4139 C   0  0  0  0  0  0  0  0  0  0  0  0
    6.1095  -52.3474  -24.2996 C   0  0  0  0  0  0  0  0  0  0  0  0
    5.1057  -51.2544  -24.2565 C   0  0  0  0  0  0  0  0  0  0  0  0
    5.0030  -50.6485  -23.1530 O   0  0  0  0  0  0  0  0  0  0  0  0
    4.3703  -50.9781  -25.3929 N   0  0  0  0  0  0  0  0  0  0  0  0
    4.4720  -51.4840  -26.2730 H   0  0  0  0  0  0  0  0  0  0  0  0
    3.4353  -49.3752  -26.7909 C   0  0  0  0  0  0  0  0  0  0  0  0
    4.1058  -48.1520  -27.1814 C   0  0  0  0  0  0  0  0  0  0  0  0
    4.2840  -47.8977  -28.6279 C   0  0  0  0  0  0  0  0  0  0  0  0
    5.2080  -48.9013  -29.2118 N   0  0  0  0  0  0  0  0  0  0  0  0
    5.8995  -49.4159  -28.6359 H   0  0  0  0  0  0  0  0  0  0  0  0
    5.1529  -49.1724  -30.6007 C   0  0  0  0  0  0  0  0  0  0  0  0
    5.8924  -50.2274  -31.1936 N   0  0  0  0  0  0  0  0  0  0  0  0
    4.4199  -48.4640  -31.4117 N   0  0  0  0  0  0  0  0  0  0  0  0
    6.8853  -50.4131  -30.9072 H   0  0  0  0  0  0  0  0  0  0  0  0
    5.4545  -50.8161  -31.9097 H   0  0  0  0  0  0  0  0  0  0  0  0
    3.8545  -47.6674  -31.0152 H   0  0  0  0  0  0  0  0  0  0  0  0
   -0.0008  -52.7142  -24.3595 C   0  0  0  0  0  0  0  0  0  0  0  0
    0.5607  -53.8367  -24.5118 O   0  0  0  0  0  0  0  0  0  0  0  0
   -0.5225  -52.4842  -23.0602 N   0  0  0  0  0  0  0  0  0  0  0  0
   -1.0034  -51.6091  -22.8455 H   0  0  0  0  0  0  0  0  0  0  0  0
   -0.4076  -53.4673  -21.9944 C   0  0  0  0  0  0  0  0  0  0  0  0
   -1.4632  -54.5020  -22.1076 C   0  0  0  0  0  0  0  0  0  0  0  0
   -1.5442  -55.4593  -23.1444 N   0  0  0  0  0  0  0  0  0  0  0  0
   -2.3533  -54.5250  -21.2114 O   0  0  0  0  0  0  0  0  0  0  0  0
   -2.3763  -56.0646  -23.2707 H   0  0  0  0  0  0  0  0  0  0  0  0
   -0.7470  -55.5611  -23.8024 H   0  0  0  0  0  0  0  0  0  0  0  0
   -0.3527  -52.7739  -20.6804 C   0  0  0  0  0  0  0  0  0  0  0  0
    0.6675  -51.7112  -20.5614 C   0  0  0  0  0  0  0  0  0  0  0  0
    0.3157  -50.3678  -20.5247 C   0  0  0  0  0  0  0  0  0  0  0  0
    1.2770  -49.3616  -20.4131 C   0  0  0  0  0  0  0  0  0  0  0  0
    2.6184  -49.6633  -20.3346 C   0  0  0  0  0  0  0  0  0  0  0  0
    2.9722  -50.9939  -20.3705 C   0  0  0  0  0  0  0  0  0  0  0  0
    2.0229  -51.9959  -20.4811 C   0  0  0  0  0  0  0  0  0  0  0  0
   -0.7487  -52.4493  -26.6736 C   0  0  0  0  0  0  0  0  0  0  0  0
    0.1979  -52.6309  -27.8466 C   0  0  0  0  0  0  0  0  0  0  0  0
    0.7210  -54.0736  -27.8525 C   0  0  0  0  0  0  0  0  0  0  0  0
   -0.6042  -52.4675  -29.1199 C   0  0  0  0  0  0  0  0  0  0  0  0
  7  8  1  0  0  0
  8  9  2  0  0  0
  8 10  1  0  0  0
 10  6  1  0  0  0
  6 12  1  0  0  0
 12 13  1  0  0  0
 13 14  1  0  0  0
 14 15  1  0  0  0
 15 17  1  0  0  0
 17 18  1  0  0  0
 17 19  2  0  0  0
  6  2  1  0  0  0
  2  3  2  0  0  0
  2  4  1  0  0  0
  4  1  1  0  0  0
  1 40  1  0  0  0
 40 41  1  0  0  0
 41 42  1  0  0  0
 41 43  1  0  0  0
  1 23  1  0  0  0
 23 24  2  0  0  0
 23 25  1  0  0  0
 25 27  1  0  0  0
 27 33  1  0  0  0
 33 34  1  0  0  0
 34 35  2  0  0  0
 35 36  1  0  0  0
 36 37  2  0  0  0
 37 38  1  0  0  0
 38 39  2  0  0  0
 27 28  1  0  0  0
 28 29  1  0  0  0
 28 30  2  0  0  0
 39 34  1  0  0  0
 10 11  1  0  0  0
 15 16  1  0  0  0
 18 20  1  0  0  0
 18 21  1  0  0  0
 19 22  1  0  0  0
  4  5  1  0  0  0
 25 26  1  0  0  0
 29 31  1  0  0  0
 29 32  1  0  0  0
M  END
> <minimizedAffinity>
-7.21928

> <CNNscore>
0.8116593361

> <CNNaffinity>
7.1030550003

> <CNN_VS>
5.7652606964

> <CNNaffinity_variance>
0.0482773781

$$$$
[H]N=C(N([H])[H])N([H])C([H])([H])C([H])([H])C([H])([H])[C@@]([H])(C(=O)N([H])[C@]([H])(C(=O)N([H])[C@]([H])(C(=O)N([H])[H])C([H])([H])c1c([H])c([H])c([H])c([H])c1[H])C([H])([H])C([H])(C([H])([H])[H])C([H])([H])[H])N([H])C(=O)C([H])([H])[H]


 43 43  0  0  0  0  0  0  0  0999 V2000
    1.0406  -51.8367  -21.1763 C   0  0  0  0  0  0  0  0  0  0  0  0
    3.3259  -50.8159  -20.7913 C   0  0  0  0  0  0  0  0  0  0  0  0
    3.6155  -51.8154  -20.0284 O   0  0  0  0  0  0  0  0  0  0  0  0
    2.0451  -50.8234  -21.3932 N   0  0  0  0  0  0  0  0  0  0  0  0
    1.7961  -50.0301  -22.0538 H   0  0  0  0  0  0  0  0  0  0  0  0
    4.3280  -49.7630  -20.9494 C   0  0  0  0  0  0  0  0  0  0  0  0
    3.5923  -47.7171  -17.7208 C   0  0  0  0  0  0  0  0  0  0  0  0
    3.4330  -48.3078  -19.0734 C   0  0  0  0  0  0  0  0  0  0  0  0
    2.3678  -48.0053  -19.6810 O   0  0  0  0  0  0  0  0  0  0  0  0
    4.4310  -49.1261  -19.5664 N   0  0  0  0  0  0  0  0  0  0  0  0
    5.2829  -49.3558  -19.0540 H   0  0  0  0  0  0  0  0  0  0  0  0
    5.7164  -50.1625  -21.2008 C   0  0  0  0  0  0  0  0  0  0  0  0
    6.1688  -50.8960  -22.3651 C   0  0  0  0  0  0  0  0  0  0  0  0
    5.8404  -50.3417  -23.6969 C   0  0  0  0  0  0  0  0  0  0  0  0
    5.4304  -51.4323  -24.6159 N   0  0  0  0  0  0  0  0  0  0  0  0
    6.1151  -52.0904  -25.0318 H   0  0  0  0  0  0  0  0  0  0  0  0
    4.0615  -51.5882  -24.9434 C   0  0  0  0  0  0  0  0  0  0  0  0
    3.6186  -52.5290  -25.9078 N   0  0  0  0  0  0  0  0  0  0  0  0
    3.1324  -50.8721  -24.3769 N   0  0  0  0  0  0  0  0  0  0  0  0
    4.1428  -52.6613  -26.8079 H   0  0  0  0  0  0  0  0  0  0  0  0
    2.7779  -53.0869  -25.7259 H   0  0  0  0  0  0  0  0  0  0  0  0
    3.4157  -50.1580  -23.6550 H   0  0  0  0  0  0  0  0  0  0  0  0
    0.2485  -52.2131  -22.3471 C   0  0  0  0  0  0  0  0  0  0  0  0
   -1.0111  -52.2444  -22.2427 O   0  0  0  0  0  0  0  0  0  0  0  0
    0.7454  -52.5603  -23.6299 N   0  0  0  0  0  0  0  0  0  0  0  0
    1.7513  -52.5737  -23.8065 H   0  0  0  0  0  0  0  0  0  0  0  0
   -0.1355  -52.9154  -24.7316 C   0  0  0  0  0  0  0  0  0  0  0  0
    0.0963  -54.3124  -25.1704 C   0  0  0  0  0  0  0  0  0  0  0  0
   -0.8018  -55.3827  -24.9569 N   0  0  0  0  0  0  0  0  0  0  0  0
    1.1765  -54.5596  -25.7770 O   0  0  0  0  0  0  0  0  0  0  0  0
   -0.5380  -56.3679  -25.1429 H   0  0  0  0  0  0  0  0  0  0  0  0
   -1.7564  -55.1790  -24.6018 H   0  0  0  0  0  0  0  0  0  0  0  0
   -0.0223  -51.8967  -25.8086 C   0  0  0  0  0  0  0  0  0  0  0  0
   -0.7371  -52.2119  -27.0631 C   0  0  0  0  0  0  0  0  0  0  0  0
   -0.0523  -52.4676  -28.2444 C   0  0  0  0  0  0  0  0  0  0  0  0
   -0.7247  -52.7650  -29.4312 C   0  0  0  0  0  0  0  0  0  0  0  0
   -2.1001  -52.8166  -29.4772 C   0  0  0  0  0  0  0  0  0  0  0  0
   -2.7836  -52.5639  -28.3085 C   0  0  0  0  0  0  0  0  0  0  0  0
   -2.1217  -52.2684  -27.1286 C   0  0  0  0  0  0  0  0  0  0  0  0
    0.1385  -51.4757  -20.0171 C   0  0  0  0  0  0  0  0  0  0  0  0
    0.1414  -52.5569  -18.9514 C   0  0  0  0  0  0  0  0  0  0  0  0
   -1.2988  -52.8064  -18.4837 C   0  0  0  0  0  0  0  0  0  0  0  0
    0.6043  -53.8449  -19.5982 C   0  0  0  0  0  0  0  0  0  0  0  0
  7  8  1  0  0  0
  8  9  2  0  0  0
  8 10  1  0  0  0
 10  6  1  0  0  0
  6 12  1  0  0  0
 12 13  1  0  0  0
 13 14  1  0  0  0
 14 15  1  0  0  0
 15 17  1  0  0  0
 17 18  1  0  0  0
 17 19  2  0  0  0
  6  2  1  0  0  0
  2  3  2  0  0  0
  2  4  1  0  0  0
  4  1  1  0  0  0
  1 40  1  0  0  0
 40 41  1  0  0  0
 41 42  1  0  0  0
 41 43  1  0  0  0
  1 23  1  0  0  0
 23 24  2  0  0  0
 23 25  1  0  0  0
 25 27  1  0  0  0
 27 33  1  0  0  0
 33 34  1  0  0  0
 34 35  2  0  0  0
 35 36  1  0  0  0
 36 37  2  0  0  0
 37 38  1  0  0  0
 38 39  2  0  0  0
 27 28  1  0  0  0
 28 29  1  0  0  0
 28 30  2  0  0  0
 39 34  1  0  0  0
 10 11  1  0  0  0
 15 16  1  0  0  0
 18 20  1  0  0  0
 18 21  1  0  0  0
 19 22  1  0  0  0
  4  5  1  0  0  0
 25 26  1  0  0  0
 29 31  1  0  0  0
 29 32  1  0  0  0
M  END
> <minimizedAffinity>
-6.34664

> <CNNscore>
0.7029514313

> <CNNaffinity>
6.9603552818

> <CNN_VS>
4.8927917480

> <CNNaffinity_variance>
0.4838515818

$$$$
[H]N=C(N([H])[H])N([H])C([H])([H])C([H])([H])C([H])([H])[C@@]([H])(C(=O)N([H])[C@]([H])(C(=O)N([H])[C@]([H])(C(=O)N([H])[H])C([H])([H])c1c([H])c([H])c([H])c([H])c1[H])C([H])([H])C([H])(C([H])([H])[H])C([H])([H])[H])N([H])C(=O)C([H])([H])[H]


 43 43  0  0  0  0  0  0  0  0999 V2000
    0.6510  -51.4121  -25.5359 C   0  0  0  0  0  0  0  0  0  0  0  0
    2.8446  -50.1595  -25.3578 C   0  0  0  0  0  0  0  0  0  0  0  0
    2.4330  -49.6484  -24.2468 O   0  0  0  0  0  0  0  0  0  0  0  0
    1.9706  -51.0646  -26.0057 N   0  0  0  0  0  0  0  0  0  0  0  0
    2.3010  -51.5263  -26.9031 H   0  0  0  0  0  0  0  0  0  0  0  0
    4.1561  -49.7476  -25.8560 C   0  0  0  0  0  0  0  0  0  0  0  0
    3.7477  -46.2901  -27.5967 C   0  0  0  0  0  0  0  0  0  0  0  0
    3.8868  -47.7555  -27.4044 C   0  0  0  0  0  0  0  0  0  0  0  0
    3.8824  -48.4493  -28.4599 O   0  0  0  0  0  0  0  0  0  0  0  0
    4.0089  -48.2518  -26.1208 N   0  0  0  0  0  0  0  0  0  0  0  0
    4.0085  -47.6690  -25.2834 H   0  0  0  0  0  0  0  0  0  0  0  0
    5.2895  -49.7784  -24.9261 C   0  0  0  0  0  0  0  0  0  0  0  0
    5.7082  -50.9405  -24.1696 C   0  0  0  0  0  0  0  0  0  0  0  0
    5.6883  -50.8434  -22.6935 C   0  0  0  0  0  0  0  0  0  0  0  0
    4.7984  -49.7349  -22.2675 N   0  0  0  0  0  0  0  0  0  0  0  0
    3.8209  -49.6519  -22.6027 H   0  0  0  0  0  0  0  0  0  0  0  0
    5.2903  -48.7519  -21.3747 C   0  0  0  0  0  0  0  0  0  0  0  0
    5.7701  -49.0797  -20.0810 N   0  0  0  0  0  0  0  0  0  0  0  0
    5.3265  -47.4892  -21.6931 N   0  0  0  0  0  0  0  0  0  0  0  0
    5.2644  -49.7789  -19.4829 H   0  0  0  0  0  0  0  0  0  0  0  0
    6.6197  -48.6302  -19.7243 H   0  0  0  0  0  0  0  0  0  0  0  0
    4.9776  -47.1987  -22.6446 H   0  0  0  0  0  0  0  0  0  0  0  0
    0.5982  -52.3312  -24.3990 C   0  0  0  0  0  0  0  0  0  0  0  0
    1.6482  -52.9566  -24.0753 O   0  0  0  0  0  0  0  0  0  0  0  0
   -0.5326  -52.6134  -23.5899 N   0  0  0  0  0  0  0  0  0  0  0  0
   -1.4291  -52.1633  -23.7822 H   0  0  0  0  0  0  0  0  0  0  0  0
   -0.4738  -53.5454  -22.4747 C   0  0  0  0  0  0  0  0  0  0  0  0
   -1.3013  -54.7465  -22.7397 C   0  0  0  0  0  0  0  0  0  0  0  0
   -1.2396  -55.5223  -23.9197 N   0  0  0  0  0  0  0  0  0  0  0  0
   -2.1203  -55.0974  -21.8441 O   0  0  0  0  0  0  0  0  0  0  0  0
   -1.9365  -56.2603  -24.1301 H   0  0  0  0  0  0  0  0  0  0  0  0
   -0.4736  -55.3490  -24.5995 H   0  0  0  0  0  0  0  0  0  0  0  0
   -0.7973  -52.8318  -21.2111 C   0  0  0  0  0  0  0  0  0  0  0  0
    0.2657  -51.9495  -20.6860 C   0  0  0  0  0  0  0  0  0  0  0  0
    0.1888  -50.5679  -20.8081 C   0  0  0  0  0  0  0  0  0  0  0  0
    1.1916  -49.7318  -20.3137 C   0  0  0  0  0  0  0  0  0  0  0  0
    2.3018  -50.2471  -19.6824 C   0  0  0  0  0  0  0  0  0  0  0  0
    2.3826  -51.6164  -19.5587 C   0  0  0  0  0  0  0  0  0  0  0  0
    1.3909  -52.4502  -20.0473 C   0  0  0  0  0  0  0  0  0  0  0  0
   -0.2193  -51.9140  -26.6666 C   0  0  0  0  0  0  0  0  0  0  0  0
    0.5277  -52.8968  -27.5505 C   0  0  0  0  0  0  0  0  0  0  0  0
    0.2008  -54.3271  -27.1009 C   0  0  0  0  0  0  0  0  0  0  0  0
   -0.0154  -52.7618  -28.9570 C   0  0  0  0  0  0  0  0  0  0  0  0
  7  8  1  0  0  0
  8  9  2  0  0  0
  8 10  1  0  0  0
 10  6  1  0  0  0
  6 12  1  0  0  0
 12 13  1  0  0  0
 13 14  1  0  0  0
 14 15  1  0  0  0
 15 17  1  0  0  0
 17 18  1  0  0  0
 17 19  2  0  0  0
  6  2  1  0  0  0
  2  3  2  0  0  0
  2  4  1  0  0  0
  4  1  1  0  0  0
  1 40  1  0  0  0
 40 41  1  0  0  0
 41 42  1  0  0  0
 41 43  1  0  0  0
  1 23  1  0  0  0
 23 24  2  0  0  0
 23 25  1  0  0  0
 25 27  1  0  0  0
 27 33  1  0  0  0
 33 34  1  0  0  0
 34 35  2  0  0  0
 35 36  1  0  0  0
 36 37  2  0  0  0
 37 38  1  0  0  0
 38 39  2  0  0  0
 27 28  1  0  0  0
 28 29  1  0  0  0
 28 30  2  0  0  0
 39 34  1  0  0  0
 10 11  1  0  0  0
 15 16  1  0  0  0
 18 20  1  0  0  0
 18 21  1  0  0  0
 19 22  1  0  0  0
  4  5  1  0  0  0
 25 26  1  0  0  0
 29 31  1  0  0  0
 29 32  1  0  0  0
M  END
> <minimizedAffinity>
-6.36952

> <CNNscore>
0.6153690815

> <CNNaffinity>
6.7024827003

> <CNN_VS>
4.1245007515

> <CNNaffinity_variance>
0.1458716691

$$$$
[H]N=C(N([H])[H])N([H])C([H])([H])C([H])([H])C([H])([H])[C@@]([H])(C(=O)N([H])[C@]([H])(C(=O)N([H])[C@]([H])(C(=O)N([H])[H])C([H])([H])c1c([H])c([H])c([H])c([H])c1[H])C([H])([H])C([H])(C([H])([H])[H])C([H])([H])[H])N([H])C(=O)C([H])([H])[H]


 43 43  0  0  0  0  0  0  0  0999 V2000
    1.8845  -50.7599  -22.9833 C   0  0  0  0  0  0  0  0  0  0  0  0
    1.4289  -50.2332  -20.5486 C   0  0  0  0  0  0  0  0  0  0  0  0
    0.8089  -49.1650  -20.9223 O   0  0  0  0  0  0  0  0  0  0  0  0
    1.9550  -51.0563  -21.5725 N   0  0  0  0  0  0  0  0  0  0  0  0
    2.4382  -51.9593  -21.2923 H   0  0  0  0  0  0  0  0  0  0  0  0
    1.5506  -50.4870  -19.1138 C   0  0  0  0  0  0  0  0  0  0  0  0
   -1.2152  -52.6758  -17.4673 C   0  0  0  0  0  0  0  0  0  0  0  0
   -0.2365  -51.5803  -17.6824 C   0  0  0  0  0  0  0  0  0  0  0  0
   -0.1793  -50.7099  -16.7689 O   0  0  0  0  0  0  0  0  0  0  0  0
    0.5267  -51.5835  -18.8340 N   0  0  0  0  0  0  0  0  0  0  0  0
    0.4604  -52.2992  -19.5581 H   0  0  0  0  0  0  0  0  0  0  0  0
    2.7892  -51.0996  -18.6230 C   0  0  0  0  0  0  0  0  0  0  0  0
    3.7462  -50.4485  -17.7521 C   0  0  0  0  0  0  0  0  0  0  0  0
    3.2638  -49.9668  -16.4391 C   0  0  0  0  0  0  0  0  0  0  0  0
    2.7283  -51.1006  -15.6456 N   0  0  0  0  0  0  0  0  0  0  0  0
    1.9395  -51.6845  -15.9799 H   0  0  0  0  0  0  0  0  0  0  0  0
    3.3054  -51.4037  -14.3884 C   0  0  0  0  0  0  0  0  0  0  0  0
    3.1685  -52.6788  -13.7828 N   0  0  0  0  0  0  0  0  0  0  0  0
    3.9930  -50.5245  -13.7167 N   0  0  0  0  0  0  0  0  0  0  0  0
    2.2494  -53.1861  -13.8031 H   0  0  0  0  0  0  0  0  0  0  0  0
    3.9744  -53.1115  -13.3198 H   0  0  0  0  0  0  0  0  0  0  0  0
    4.1189  -49.5618  -14.1275 H   0  0  0  0  0  0  0  0  0  0  0  0
    0.9784  -51.5980  -23.7685 C   0  0  0  0  0  0  0  0  0  0  0  0
    0.4007  -51.0916  -24.7726 O   0  0  0  0  0  0  0  0  0  0  0  0
    0.6601  -52.9593  -23.5261 N   0  0  0  0  0  0  0  0  0  0  0  0
    1.0706  -53.4506  -22.7302 H   0  0  0  0  0  0  0  0  0  0  0  0
   -0.2546  -53.7041  -24.3770 C   0  0  0  0  0  0  0  0  0  0  0  0
   -0.9673  -54.7506  -23.6059 C   0  0  0  0  0  0  0  0  0  0  0  0
   -1.3738  -55.9994  -24.1287 N   0  0  0  0  0  0  0  0  0  0  0  0
   -1.2296  -54.5035  -22.3951 O   0  0  0  0  0  0  0  0  0  0  0  0
   -1.9993  -56.6383  -23.6041 H   0  0  0  0  0  0  0  0  0  0  0  0
   -1.0374  -56.2882  -25.0681 H   0  0  0  0  0  0  0  0  0  0  0  0
    0.4716  -54.1992  -25.5763 C   0  0  0  0  0  0  0  0  0  0  0  0
    0.0179  -53.6476  -26.8702 C   0  0  0  0  0  0  0  0  0  0  0  0
   -1.2223  -53.0362  -27.0040 C   0  0  0  0  0  0  0  0  0  0  0  0
   -1.6541  -52.5148  -28.2249 C   0  0  0  0  0  0  0  0  0  0  0  0
   -0.8630  -52.5865  -29.3500 C   0  0  0  0  0  0  0  0  0  0  0  0
    0.3676  -53.1917  -29.2223 C   0  0  0  0  0  0  0  0  0  0  0  0
    0.8007  -53.7106  -28.0137 C   0  0  0  0  0  0  0  0  0  0  0  0
    3.2618  -50.7349  -23.6080 C   0  0  0  0  0  0  0  0  0  0  0  0
    4.2581  -51.5392  -22.7922 C   0  0  0  0  0  0  0  0  0  0  0  0
    4.9142  -52.5923  -23.6953 C   0  0  0  0  0  0  0  0  0  0  0  0
    5.3669  -50.6035  -22.3602 C   0  0  0  0  0  0  0  0  0  0  0  0
  7  8  1  0  0  0
  8  9  2  0  0  0
  8 10  1  0  0  0
 10  6  1  0  0  0
  6 12  1  0  0  0
 12 13  1  0  0  0
 13 14  1  0  0  0
 14 15  1  0  0  0
 15 17  1  0  0  0
 17 18  1  0  0  0
 17 19  2  0  0  0
  6  2  1  0  0  0
  2  3  2  0  0  0
  2  4  1  0  0  0
  4  1  1  0  0  0
  1 40  1  0  0  0
 40 41  1  0  0  0
 41 42  1  0  0  0
 41 43  1  0  0  0
  1 23  1  0  0  0
 23 24  2  0  0  0
 23 25  1  0  0  0
 25 27  1  0  0  0
 27 33  1  0  0  0
 33 34  1  0  0  0
 34 35  2  0  0  0
 35 36  1  0  0  0
 36 37  2  0  0  0
 37 38  1  0  0  0
 38 39  2  0  0  0
 27 28  1  0  0  0
 28 29  1  0  0  0
 28 30  2  0  0  0
 39 34  1  0  0  0
 10 11  1  0  0  0
 15 16  1  0  0  0
 18 20  1  0  0  0
 18 21  1  0  0  0
 19 22  1  0  0  0
  4  5  1  0  0  0
 25 26  1  0  0  0
 29 31  1  0  0  0
 29 32  1  0  0  0
M  END
> <minimizedAffinity>
-6.79791

> <CNNscore>
0.5926550627

> <CNNaffinity>
6.7123517990

> <CNN_VS>
3.9781093597

> <CNNaffinity_variance>
0.0906558335

$$$$
[H]N=C(N([H])[H])N([H])C([H])([H])C([H])([H])C([H])([H])[C@@]([H])(C(=O)N([H])[C@]([H])(C(=O)N([H])[C@]([H])(C(=O)N([H])[H])C([H])([H])c1c([H])c([H])c([H])c([H])c1[H])C([H])([H])C([H])(C([H])([H])[H])C([H])([H])[H])N([H])C(=O)C([H])([H])[H]


 43 43  0  0  0  0  0  0  0  0999 V2000
    2.5698  -51.0069  -22.2051 C   0  0  0  0  0  0  0  0  0  0  0  0
    3.0761  -51.1589  -19.7286 C   0  0  0  0  0  0  0  0  0  0  0  0
    2.5460  -52.3353  -19.7186 O   0  0  0  0  0  0  0  0  0  0  0  0
    3.1160  -50.4882  -20.9741 N   0  0  0  0  0  0  0  0  0  0  0  0
    3.5795  -49.5337  -21.0157 H   0  0  0  0  0  0  0  0  0  0  0  0
    3.5655  -50.6183  -18.4613 C   0  0  0  0  0  0  0  0  0  0  0  0
    4.7299  -46.9721  -19.1691 C   0  0  0  0  0  0  0  0  0  0  0  0
    4.7683  -48.4428  -18.9699 C   0  0  0  0  0  0  0  0  0  0  0  0
    5.9047  -48.9817  -19.0862 O   0  0  0  0  0  0  0  0  0  0  0  0
    3.5930  -49.1079  -18.6782 N   0  0  0  0  0  0  0  0  0  0  0  0
    2.6863  -48.6484  -18.5905 H   0  0  0  0  0  0  0  0  0  0  0  0
    2.7041  -50.7370  -17.2806 C   0  0  0  0  0  0  0  0  0  0  0  0
    1.6906  -49.7765  -16.8954 C   0  0  0  0  0  0  0  0  0  0  0  0
    0.2916  -50.0604  -17.2838 C   0  0  0  0  0  0  0  0  0  0  0  0
    0.1532  -51.4816  -17.6877 N   0  0  0  0  0  0  0  0  0  0  0  0
    0.6764  -51.8813  -18.4884 H   0  0  0  0  0  0  0  0  0  0  0  0
   -0.7205  -52.3287  -16.9633 C   0  0  0  0  0  0  0  0  0  0  0  0
   -1.0565  -52.0842  -15.6073 N   0  0  0  0  0  0  0  0  0  0  0  0
   -1.2624  -53.3828  -17.5038 N   0  0  0  0  0  0  0  0  0  0  0  0
   -0.3241  -51.7773  -14.9204 H   0  0  0  0  0  0  0  0  0  0  0  0
   -2.0243  -52.2078  -15.2926 H   0  0  0  0  0  0  0  0  0  0  0  0
   -1.0391  -53.6051  -18.5099 H   0  0  0  0  0  0  0  0  0  0  0  0
    1.2354  -51.5994  -22.1132 C   0  0  0  0  0  0  0  0  0  0  0  0
    0.2749  -50.8740  -21.7263 O   0  0  0  0  0  0  0  0  0  0  0  0
    0.8809  -52.9393  -22.4168 N   0  0  0  0  0  0  0  0  0  0  0  0
    1.5927  -53.6029  -22.7271 H   0  0  0  0  0  0  0  0  0  0  0  0
   -0.4844  -53.4257  -22.2952 C   0  0  0  0  0  0  0  0  0  0  0  0
   -0.7141  -54.0427  -20.9669 C   0  0  0  0  0  0  0  0  0  0  0  0
    0.3022  -54.3387  -20.0302 N   0  0  0  0  0  0  0  0  0  0  0  0
   -1.9054  -54.3240  -20.6547 O   0  0  0  0  0  0  0  0  0  0  0  0
    0.1202  -54.9050  -19.1812 H   0  0  0  0  0  0  0  0  0  0  0  0
    1.2628  -53.9796  -20.1956 H   0  0  0  0  0  0  0  0  0  0  0  0
   -0.8069  -54.3006  -23.4532 C   0  0  0  0  0  0  0  0  0  0  0  0
   -0.5112  -53.7320  -24.7849 C   0  0  0  0  0  0  0  0  0  0  0  0
   -0.7875  -52.4041  -25.0850 C   0  0  0  0  0  0  0  0  0  0  0  0
   -0.5099  -51.8642  -26.3422 C   0  0  0  0  0  0  0  0  0  0  0  0
    0.0517  -52.6311  -27.3388 C   0  0  0  0  0  0  0  0  0  0  0  0
    0.3276  -53.9482  -27.0460 C   0  0  0  0  0  0  0  0  0  0  0  0
    0.0543  -54.4889  -25.8008 C   0  0  0  0  0  0  0  0  0  0  0  0
    3.5323  -51.9643  -22.8719 C   0  0  0  0  0  0  0  0  0  0  0  0
    3.7815  -51.5847  -24.3207 C   0  0  0  0  0  0  0  0  0  0  0  0
    3.2203  -52.6839  -25.2327 C   0  0  0  0  0  0  0  0  0  0  0  0
    2.9769  -50.3375  -24.6186 C   0  0  0  0  0  0  0  0  0  0  0  0
  7  8  1  0  0  0
  8  9  2  0  0  0
  8 10  1  0  0  0
 10  6  1  0  0  0
  6 12  1  0  0  0
 12 13  1  0  0  0
 13 14  1  0  0  0
 14 15  1  0  0  0
 15 17  1  0  0  0
 17 18  1  0  0  0
 17 19  2  0  0  0
  6  2  1  0  0  0
  2  3  2  0  0  0
  2  4  1  0  0  0
  4  1  1  0  0  0
  1 40  1  0  0  0
 40 41  1  0  0  0
 41 42  1  0  0  0
 41 43  1  0  0  0
  1 23  1  0  0  0
 23 24  2  0  0  0
 23 25  1  0  0  0
 25 27  1  0  0  0
 27 33  1  0  0  0
 33 34  1  0  0  0
 34 35  2  0  0  0
 35 36  1  0  0  0
 36 37  2  0  0  0
 37 38  1  0  0  0
 38 39  2  0  0  0
 27 28  1  0  0  0
 28 29  1  0  0  0
 28 30  2  0  0  0
 39 34  1  0  0  0
 10 11  1  0  0  0
 15 16  1  0  0  0
 18 20  1  0  0  0
 18 21  1  0  0  0
 19 22  1  0  0  0
  4  5  1  0  0  0
 25 26  1  0  0  0
 29 31  1  0  0  0
 29 32  1  0  0  0
M  END
> <minimizedAffinity>
-7.04016

> <CNNscore>
0.4705123603

> <CNNaffinity>
6.4254670143

> <CNN_VS>
3.0232615471

> <CNNaffinity_variance>
0.3029658198

$$$$
[H]N=C(N([H])[H])N([H])C([H])([H])C([H])([H])C([H])([H])[C@@]([H])(C(=O)N([H])[C@]([H])(C(=O)N([H])[C@]([H])(C(=O)N([H])[H])C([H])([H])c1c([H])c([H])c([H])c([H])c1[H])C([H])([H])C([H])(C([H])([H])[H])C([H])([H])[H])N([H])C(=O)C([H])([H])[H]


 43 43  0  0  0  0  0  0  0  0999 V2000
    1.2999  -51.4799  -25.9463 C   0  0  0  0  0  0  0  0  0  0  0  0
    2.8272  -49.8398  -24.7675 C   0  0  0  0  0  0  0  0  0  0  0  0
    2.1456  -50.0210  -23.6870 O   0  0  0  0  0  0  0  0  0  0  0  0
    2.4292  -50.5822  -25.9046 N   0  0  0  0  0  0  0  0  0  0  0  0
    2.9963  -50.4778  -26.7962 H   0  0  0  0  0  0  0  0  0  0  0  0
    3.9274  -48.8775  -24.7290 C   0  0  0  0  0  0  0  0  0  0  0  0
    3.3480  -45.6405  -26.8117 C   0  0  0  0  0  0  0  0  0  0  0  0
    3.9791  -46.8802  -26.2930 C   0  0  0  0  0  0  0  0  0  0  0  0
    5.0886  -47.1883  -26.8120 O   0  0  0  0  0  0  0  0  0  0  0  0
    3.3313  -47.5960  -25.3048 N   0  0  0  0  0  0  0  0  0  0  0  0
    2.4336  -47.3256  -24.9024 H   0  0  0  0  0  0  0  0  0  0  0  0
    4.4042  -48.4250  -23.4182 C   0  0  0  0  0  0  0  0  0  0  0  0
    5.7000  -48.7423  -22.8540 C   0  0  0  0  0  0  0  0  0  0  0  0
    5.8403  -50.0274  -22.1344 C   0  0  0  0  0  0  0  0  0  0  0  0
    6.5028  -51.0296  -23.0055 N   0  0  0  0  0  0  0  0  0  0  0  0
    7.5334  -51.0776  -23.1068 H   0  0  0  0  0  0  0  0  0  0  0  0
    5.7109  -51.9552  -23.7277 C   0  0  0  0  0  0  0  0  0  0  0  0
    4.4387  -52.3805  -23.2675 N   0  0  0  0  0  0  0  0  0  0  0  0
    6.1103  -52.4697  -24.8559 N   0  0  0  0  0  0  0  0  0  0  0  0
    4.2824  -52.6036  -22.2535 H   0  0  0  0  0  0  0  0  0  0  0  0
    3.6620  -52.4717  -23.9304 H   0  0  0  0  0  0  0  0  0  0  0  0
    7.0514  -52.1840  -25.2355 H   0  0  0  0  0  0  0  0  0  0  0  0
    1.1186  -52.3348  -24.7731 C   0  0  0  0  0  0  0  0  0  0  0  0
    2.0170  -53.1793  -24.4932 O   0  0  0  0  0  0  0  0  0  0  0  0
    0.0141  -52.3277  -23.8825 N   0  0  0  0  0  0  0  0  0  0  0  0
   -0.7661  -51.6863  -24.0343 H   0  0  0  0  0  0  0  0  0  0  0  0
   -0.0633  -53.2215  -22.7376 C   0  0  0  0  0  0  0  0  0  0  0  0
   -0.9261  -54.3907  -23.0316 C   0  0  0  0  0  0  0  0  0  0  0  0
   -1.1476  -54.9235  -24.3220 N   0  0  0  0  0  0  0  0  0  0  0  0
   -1.5042  -54.9466  -22.0556 O   0  0  0  0  0  0  0  0  0  0  0  0
   -1.8721  -55.6423  -24.5036 H   0  0  0  0  0  0  0  0  0  0  0  0
   -0.5683  -54.5855  -25.1151 H   0  0  0  0  0  0  0  0  0  0  0  0
   -0.4508  -52.4493  -21.5276 C   0  0  0  0  0  0  0  0  0  0  0  0
    0.5718  -51.5152  -21.0118 C   0  0  0  0  0  0  0  0  0  0  0  0
    1.8584  -51.9424  -20.7089 C   0  0  0  0  0  0  0  0  0  0  0  0
    2.8264  -51.0627  -20.2208 C   0  0  0  0  0  0  0  0  0  0  0  0
    2.5418  -49.7303  -20.0198 C   0  0  0  0  0  0  0  0  0  0  0  0
    1.2674  -49.3020  -20.3188 C   0  0  0  0  0  0  0  0  0  0  0  0
    0.3035  -50.1702  -20.8030 C   0  0  0  0  0  0  0  0  0  0  0  0
    1.3035  -52.3077  -27.2123 C   0  0  0  0  0  0  0  0  0  0  0  0
   -0.0329  -52.9933  -27.4332 C   0  0  0  0  0  0  0  0  0  0  0  0
   -0.5956  -52.5714  -28.7971 C   0  0  0  0  0  0  0  0  0  0  0  0
    0.2192  -54.4833  -27.5232 C   0  0  0  0  0  0  0  0  0  0  0  0
  7  8  1  0  0  0
  8  9  2  0  0  0
  8 10  1  0  0  0
 10  6  1  0  0  0
  6 12  1  0  0  0
 12 13  1  0  0  0
 13 14  1  0  0  0
 14 15  1  0  0  0
 15 17  1  0  0  0
 17 18  1  0  0  0
 17 19  2  0  0  0
  6  2  1  0  0  0
  2  3  2  0  0  0
  2  4  1  0  0  0
  4  1  1  0  0  0
  1 40  1  0  0  0
 40 41  1  0  0  0
 41 42  1  0  0  0
 41 43  1  0  0  0
  1 23  1  0  0  0
 23 24  2  0  0  0
 23 25  1  0  0  0
 25 27  1  0  0  0
 27 33  1  0  0  0
 33 34  1  0  0  0
 34 35  2  0  0  0
 35 36  1  0  0  0
 36 37  2  0  0  0
 37 38  1  0  0  0
 38 39  2  0  0  0
 27 28  1  0  0  0
 28 29  1  0  0  0
 28 30  2  0  0  0
 39 34  1  0  0  0
 10 11  1  0  0  0
 15 16  1  0  0  0
 18 20  1  0  0  0
 18 21  1  0  0  0
 19 22  1  0  0  0
  4  5  1  0  0  0
 25 26  1  0  0  0
 29 31  1  0  0  0
 29 32  1  0  0  0
M  END
> <minimizedAffinity>
-6.47930

> <CNNscore>
0.4102059901

> <CNNaffinity>
6.5042243004

> <CNN_VS>
2.6680717468

> <CNNaffinity_variance>
0.3170195818

$$$$
[H]N=C(N([H])[H])N([H])C([H])([H])C([H])([H])C([H])([H])[C@@]([H])(C(=O)N([H])[C@]([H])(C(=O)N([H])[C@]([H])(C(=O)N([H])[H])C([H])([H])c1c([H])c([H])c([H])c([H])c1[H])C([H])([H])C([H])(C([H])([H])[H])C([H])([H])[H])N([H])C(=O)C([H])([H])[H]


 43 43  0  0  0  0  0  0  0  0999 V2000
    0.8354  -51.8483  -19.3415 C   0  0  0  0  0  0  0  0  0  0  0  0
   -0.7452  -52.0243  -17.3708 C   0  0  0  0  0  0  0  0  0  0  0  0
   -0.8789  -53.2826  -17.6233 O   0  0  0  0  0  0  0  0  0  0  0  0
    0.1298  -51.2950  -18.2106 N   0  0  0  0  0  0  0  0  0  0  0  0
    0.2846  -50.2655  -18.0013 H   0  0  0  0  0  0  0  0  0  0  0  0
   -1.5172  -51.4630  -16.2632 C   0  0  0  0  0  0  0  0  0  0  0  0
   -4.8327  -53.3686  -15.5370 C   0  0  0  0  0  0  0  0  0  0  0  0
   -3.8904  -52.2719  -15.8737 C   0  0  0  0  0  0  0  0  0  0  0  0
   -4.4173  -51.1451  -16.0926 O   0  0  0  0  0  0  0  0  0  0  0  0
   -2.5373  -52.5463  -15.9241 N   0  0  0  0  0  0  0  0  0  0  0  0
   -2.1367  -53.4670  -15.7436 H   0  0  0  0  0  0  0  0  0  0  0  0
   -0.8411  -51.2728  -14.9760 C   0  0  0  0  0  0  0  0  0  0  0  0
    0.4730  -51.7858  -14.6475 C   0  0  0  0  0  0  0  0  0  0  0  0
    1.6069  -50.8357  -14.6692 C   0  0  0  0  0  0  0  0  0  0  0  0
    2.8013  -51.4531  -14.0413 N   0  0  0  0  0  0  0  0  0  0  0  0
    2.9389  -51.4686  -13.0139 H   0  0  0  0  0  0  0  0  0  0  0  0
    3.7927  -52.0426  -14.8629 C   0  0  0  0  0  0  0  0  0  0  0  0
    4.4965  -53.2114  -14.4757 N   0  0  0  0  0  0  0  0  0  0  0  0
    4.1147  -51.5405  -16.0210 N   0  0  0  0  0  0  0  0  0  0  0  0
    4.8374  -53.3301  -13.4898 H   0  0  0  0  0  0  0  0  0  0  0  0
    4.6754  -53.9494  -15.1645 H   0  0  0  0  0  0  0  0  0  0  0  0
    3.6187  -50.6700  -16.3489 H   0  0  0  0  0  0  0  0  0  0  0  0
    2.1955  -51.3524  -19.5518 C   0  0  0  0  0  0  0  0  0  0  0  0
    3.1544  -51.9539  -18.9885 O   0  0  0  0  0  0  0  0  0  0  0  0
    2.5776  -50.2363  -20.3400 N   0  0  0  0  0  0  0  0  0  0  0  0
    1.8702  -49.6815  -20.8249 H   0  0  0  0  0  0  0  0  0  0  0  0
    3.9668  -49.8307  -20.4862 C   0  0  0  0  0  0  0  0  0  0  0  0
    4.3315  -48.8057  -19.4791 C   0  0  0  0  0  0  0  0  0  0  0  0
    4.5653  -49.0696  -18.1103 N   0  0  0  0  0  0  0  0  0  0  0  0
    4.4385  -47.6116  -19.8773 O   0  0  0  0  0  0  0  0  0  0  0  0
    4.6686  -48.3093  -17.4132 H   0  0  0  0  0  0  0  0  0  0  0  0
    4.6355  -50.0551  -17.7898 H   0  0  0  0  0  0  0  0  0  0  0  0
    4.2258  -49.4386  -21.8968 C   0  0  0  0  0  0  0  0  0  0  0  0
    3.6631  -50.3403  -22.9237 C   0  0  0  0  0  0  0  0  0  0  0  0
    2.7270  -49.8937  -23.8477 C   0  0  0  0  0  0  0  0  0  0  0  0
    2.1930  -50.7431  -24.8185 C   0  0  0  0  0  0  0  0  0  0  0  0
    2.5758  -52.0637  -24.8982 C   0  0  0  0  0  0  0  0  0  0  0  0
    3.5039  -52.5111  -23.9843 C   0  0  0  0  0  0  0  0  0  0  0  0
    4.0366  -51.6730  -23.0193 C   0  0  0  0  0  0  0  0  0  0  0  0
    0.0215  -51.7238  -20.6103 C   0  0  0  0  0  0  0  0  0  0  0  0
    0.3460  -52.8361  -21.5914 C   0  0  0  0  0  0  0  0  0  0  0  0
   -0.1586  -54.1700  -21.0249 C   0  0  0  0  0  0  0  0  0  0  0  0
   -0.4489  -52.5866  -22.8554 C   0  0  0  0  0  0  0  0  0  0  0  0
  7  8  1  0  0  0
  8  9  2  0  0  0
  8 10  1  0  0  0
 10  6  1  0  0  0
  6 12  1  0  0  0
 12 13  1  0  0  0
 13 14  1  0  0  0
 14 15  1  0  0  0
 15 17  1  0  0  0
 17 18  1  0  0  0
 17 19  2  0  0  0
  6  2  1  0  0  0
  2  3  2  0  0  0
  2  4  1  0  0  0
  4  1  1  0  0  0
  1 40  1  0  0  0
 40 41  1  0  0  0
 41 42  1  0  0  0
 41 43  1  0  0  0
  1 23  1  0  0  0
 23 24  2  0  0  0
 23 25  1  0  0  0
 25 27  1  0  0  0
 27 33  1  0  0  0
 33 34  1  0  0  0
 34 35  2  0  0  0
 35 36  1  0  0  0
 36 37  2  0  0  0
 37 38  1  0  0  0
 38 39  2  0  0  0
 27 28  1  0  0  0
 28 29  1  0  0  0
 28 30  2  0  0  0
 39 34  1  0  0  0
 10 11  1  0  0  0
 15 16  1  0  0  0
 18 20  1  0  0  0
 18 21  1  0  0  0
 19 22  1  0  0  0
  4  5  1  0  0  0
 25 26  1  0  0  0
 29 31  1  0  0  0
 29 32  1  0  0  0
M  END
> <minimizedAffinity>
-6.67431

> <CNNscore>
0.3773372471

> <CNNaffinity>
5.7644972801

> <CNN_VS>
2.1751594543

> <CNNaffinity_variance>
0.4545938075

$$$$
[H]N=C(N([H])[H])N([H])C([H])([H])C([H])([H])C([H])([H])[C@@]([H])(C(=O)N([H])[C@]([H])(C(=O)N([H])[C@]([H])(C(=O)N([H])[H])C([H])([H])c1c([H])c([H])c([H])c([H])c1[H])C([H])([H])C([H])(C([H])([H])[H])C([H])([H])[H])N([H])C(=O)C([H])([H])[H]


 43 43  0  0  0  0  0  0  0  0999 V2000
    4.1558  -51.5285  -22.3169 C   0  0  0  0  0  0  0  0  0  0  0  0
    3.3021  -51.7017  -24.6946 C   0  0  0  0  0  0  0  0  0  0  0  0
    3.4029  -52.9853  -24.6102 O   0  0  0  0  0  0  0  0  0  0  0  0
    3.6548  -50.9573  -23.5439 N   0  0  0  0  0  0  0  0  0  0  0  0
    3.5462  -49.9015  -23.5761 H   0  0  0  0  0  0  0  0  0  0  0  0
    2.8565  -51.1326  -25.9657 C   0  0  0  0  0  0  0  0  0  0  0  0
    5.2864  -48.1428  -26.5209 C   0  0  0  0  0  0  0  0  0  0  0  0
    4.1270  -48.9377  -26.0432 C   0  0  0  0  0  0  0  0  0  0  0  0
    3.3055  -48.3206  -25.3086 O   0  0  0  0  0  0  0  0  0  0  0  0
    4.0241  -50.2622  -26.4221 N   0  0  0  0  0  0  0  0  0  0  0  0
    4.7031  -50.7380  -27.0166 H   0  0  0  0  0  0  0  0  0  0  0  0
    2.6913  -52.0374  -27.1078 C   0  0  0  0  0  0  0  0  0  0  0  0
    1.5854  -52.9564  -27.2826 C   0  0  0  0  0  0  0  0  0  0  0  0
    0.2321  -52.4798  -26.9215 C   0  0  0  0  0  0  0  0  0  0  0  0
   -0.5144  -53.5513  -26.2167 N   0  0  0  0  0  0  0  0  0  0  0  0
   -1.0706  -54.2630  -26.7256 H   0  0  0  0  0  0  0  0  0  0  0  0
   -0.4736  -53.6130  -24.8025 C   0  0  0  0  0  0  0  0  0  0  0  0
   -1.1295  -54.6368  -24.0725 N   0  0  0  0  0  0  0  0  0  0  0  0
    0.1683  -52.7287  -24.0932 N   0  0  0  0  0  0  0  0  0  0  0  0
   -2.0927  -54.9552  -24.3429 H   0  0  0  0  0  0  0  0  0  0  0  0
   -0.6596  -55.0719  -23.2718 H   0  0  0  0  0  0  0  0  0  0  0  0
    0.6691  -51.9476  -24.5938 H   0  0  0  0  0  0  0  0  0  0  0  0
    3.1616  -51.7717  -21.2717 C   0  0  0  0  0  0  0  0  0  0  0  0
    3.5571  -51.9120  -20.0791 O   0  0  0  0  0  0  0  0  0  0  0  0
    1.7572  -51.8732  -21.4459 N   0  0  0  0  0  0  0  0  0  0  0  0
    1.3456  -51.7841  -22.3765 H   0  0  0  0  0  0  0  0  0  0  0  0
    0.8539  -52.1129  -20.3313 C   0  0  0  0  0  0  0  0  0  0  0  0
   -0.1981  -53.0908  -20.6986 C   0  0  0  0  0  0  0  0  0  0  0  0
   -0.2132  -54.4459  -20.2967 N   0  0  0  0  0  0  0  0  0  0  0  0
   -1.1465  -52.6793  -21.4246 O   0  0  0  0  0  0  0  0  0  0  0  0
   -0.8808  -55.1310  -20.6964 H   0  0  0  0  0  0  0  0  0  0  0  0
    0.4652  -54.7684  -19.5794 H   0  0  0  0  0  0  0  0  0  0  0  0
    0.3454  -50.8152  -19.8138 C   0  0  0  0  0  0  0  0  0  0  0  0
    0.2867  -50.6937  -18.3420 C   0  0  0  0  0  0  0  0  0  0  0  0
    0.7963  -49.5812  -17.6845 C   0  0  0  0  0  0  0  0  0  0  0  0
    0.7430  -49.4638  -16.2944 C   0  0  0  0  0  0  0  0  0  0  0  0
    0.1802  -50.4514  -15.5170 C   0  0  0  0  0  0  0  0  0  0  0  0
   -0.3266  -51.5564  -16.1643 C   0  0  0  0  0  0  0  0  0  0  0  0
   -0.2763  -51.6780  -17.5428 C   0  0  0  0  0  0  0  0  0  0  0  0
    5.3157  -50.7254  -21.7714 C   0  0  0  0  0  0  0  0  0  0  0  0
    5.1518  -49.2439  -22.0598 C   0  0  0  0  0  0  0  0  0  0  0  0
    5.0543  -48.4805  -20.7321 C   0  0  0  0  0  0  0  0  0  0  0  0
    6.4179  -48.7593  -22.7334 C   0  0  0  0  0  0  0  0  0  0  0  0
  7  8  1  0  0  0
  8  9  2  0  0  0
  8 10  1  0  0  0
 10  6  1  0  0  0
  6 12  1  0  0  0
 12 13  1  0  0  0
 13 14  1  0  0  0
 14 15  1  0  0  0
 15 17  1  0  0  0
 17 18  1  0  0  0
 17 19  2  0  0  0
  6  2  1  0  0  0
  2  3  2  0  0  0
  2  4  1  0  0  0
  4  1  1  0  0  0
  1 40  1  0  0  0
 40 41  1  0  0  0
 41 42  1  0  0  0
 41 43  1  0  0  0
  1 23  1  0  0  0
 23 24  2  0  0  0
 23 25  1  0  0  0
 25 27  1  0  0  0
 27 33  1  0  0  0
 33 34  1  0  0  0
 34 35  2  0  0  0
 35 36  1  0  0  0
 36 37  2  0  0  0
 37 38  1  0  0  0
 38 39  2  0  0  0
 27 28  1  0  0  0
 28 29  1  0  0  0
 28 30  2  0  0  0
 39 34  1  0  0  0
 10 11  1  0  0  0
 15 16  1  0  0  0
 18 20  1  0  0  0
 18 21  1  0  0  0
 19 22  1  0  0  0
  4  5  1  0  0  0
 25 26  1  0  0  0
 29 31  1  0  0  0
 29 32  1  0  0  0
M  END
> <minimizedAffinity>
-6.00463

> <CNNscore>
0.2326091081

> <CNNaffinity>
6.1895360947

> <CNN_VS>
1.4397424459

> <CNNaffinity_variance>
0.3590211272

$$$$
[H]N=C(N([H])[H])N([H])C([H])([H])C([H])([H])C([H])([H])[C@@]([H])(C(=O)N([H])[C@]([H])(C(=O)N([H])[C@]([H])(C(=O)N([H])[H])C([H])([H])c1c([H])c([H])c([H])c([H])c1[H])C([H])([H])C([H])(C([H])([H])[H])C([H])([H])[H])N([H])C(=O)C([H])([H])[H]


 43 43  0  0  0  0  0  0  0  0999 V2000
    0.7646  -51.7359  -21.4244 C   0  0  0  0  0  0  0  0  0  0  0  0
    2.1534  -50.0550  -22.7123 C   0  0  0  0  0  0  0  0  0  0  0  0
    1.6988  -49.1264  -21.9403 O   0  0  0  0  0  0  0  0  0  0  0  0
    1.7114  -51.3739  -22.4518 N   0  0  0  0  0  0  0  0  0  0  0  0
    2.0989  -52.1608  -23.0504 H   0  0  0  0  0  0  0  0  0  0  0  0
    3.0602  -49.6649  -23.7910 C   0  0  0  0  0  0  0  0  0  0  0  0
    3.4419  -45.8664  -24.5504 C   0  0  0  0  0  0  0  0  0  0  0  0
    3.3187  -47.3318  -24.7541 C   0  0  0  0  0  0  0  0  0  0  0  0
    3.3429  -47.7216  -25.9553 O   0  0  0  0  0  0  0  0  0  0  0  0
    3.1898  -48.1509  -23.6491 N   0  0  0  0  0  0  0  0  0  0  0  0
    3.1721  -47.8102  -22.6876 H   0  0  0  0  0  0  0  0  0  0  0  0
    4.4593  -50.0958  -23.7074 C   0  0  0  0  0  0  0  0  0  0  0  0
    4.9046  -51.3607  -23.1596 C   0  0  0  0  0  0  0  0  0  0  0  0
    4.6032  -52.5873  -23.9298 C   0  0  0  0  0  0  0  0  0  0  0  0
    4.5344  -52.2753  -25.3789 N   0  0  0  0  0  0  0  0  0  0  0  0
    5.2769  -51.7384  -25.8638 H   0  0  0  0  0  0  0  0  0  0  0  0
    3.4219  -52.7197  -26.1341 C   0  0  0  0  0  0  0  0  0  0  0  0
    3.3060  -52.4702  -27.5254 N   0  0  0  0  0  0  0  0  0  0  0  0
    2.4406  -53.3813  -25.5898 N   0  0  0  0  0  0  0  0  0  0  0  0
    3.5657  -51.5350  -27.9258 H   0  0  0  0  0  0  0  0  0  0  0  0
    2.9651  -53.2096  -28.1483 H   0  0  0  0  0  0  0  0  0  0  0  0
    2.4831  -53.5878  -24.5569 H   0  0  0  0  0  0  0  0  0  0  0  0
    1.0960  -51.3015  -20.0674 C   0  0  0  0  0  0  0  0  0  0  0  0
    2.0658  -51.8540  -19.4735 O   0  0  0  0  0  0  0  0  0  0  0  0
    0.4330  -50.2990  -19.3134 N   0  0  0  0  0  0  0  0  0  0  0  0
   -0.3696  -49.8046  -19.7068 H   0  0  0  0  0  0  0  0  0  0  0  0
    0.8501  -49.9397  -17.9671 C   0  0  0  0  0  0  0  0  0  0  0  0
    2.2055  -49.3392  -17.9715 C   0  0  0  0  0  0  0  0  0  0  0  0
    2.7620  -48.6159  -19.0508 N   0  0  0  0  0  0  0  0  0  0  0  0
    2.9109  -49.4886  -16.9342 O   0  0  0  0  0  0  0  0  0  0  0  0
    3.7621  -48.3439  -19.0735 H   0  0  0  0  0  0  0  0  0  0  0  0
    2.1524  -48.3479  -19.8480 H   0  0  0  0  0  0  0  0  0  0  0  0
    0.6904  -51.1117  -17.0662 C   0  0  0  0  0  0  0  0  0  0  0  0
   -0.7032  -51.4869  -16.7478 C   0  0  0  0  0  0  0  0  0  0  0  0
   -1.4742  -50.7370  -15.8687 C   0  0  0  0  0  0  0  0  0  0  0  0
   -2.7907  -51.0891  -15.5653 C   0  0  0  0  0  0  0  0  0  0  0  0
   -3.3791  -52.1995  -16.1288 C   0  0  0  0  0  0  0  0  0  0  0  0
   -2.6187  -52.9462  -17.0012 C   0  0  0  0  0  0  0  0  0  0  0  0
   -1.3125  -52.6015  -17.3056 C   0  0  0  0  0  0  0  0  0  0  0  0
    0.4668  -53.2186  -21.4507 C   0  0  0  0  0  0  0  0  0  0  0  0
   -0.9641  -53.4917  -21.8783 C   0  0  0  0  0  0  0  0  0  0  0  0
   -1.0139  -54.8154  -22.6532 C   0  0  0  0  0  0  0  0  0  0  0  0
   -1.7900  -53.7036  -20.6275 C   0  0  0  0  0  0  0  0  0  0  0  0
  7  8  1  0  0  0
  8  9  2  0  0  0
  8 10  1  0  0  0
 10  6  1  0  0  0
  6 12  1  0  0  0
 12 13  1  0  0  0
 13 14  1  0  0  0
 14 15  1  0  0  0
 15 17  1  0  0  0
 17 18  1  0  0  0
 17 19  2  0  0  0
  6  2  1  0  0  0
  2  3  2  0  0  0
  2  4  1  0  0  0
  4  1  1  0  0  0
  1 40  1  0  0  0
 40 41  1  0  0  0
 41 42  1  0  0  0
 41 43  1  0  0  0
  1 23  1  0  0  0
 23 24  2  0  0  0
 23 25  1  0  0  0
 25 27  1  0  0  0
 27 33  1  0  0  0
 33 34  1  0  0  0
 34 35  2  0  0  0
 35 36  1  0  0  0
 36 37  2  0  0  0
 37 38  1  0  0  0
 38 39  2  0  0  0
 27 28  1  0  0  0
 28 29  1  0  0  0
 28 30  2  0  0  0
 39 34  1  0  0  0
 10 11  1  0  0  0
 15 16  1  0  0  0
 18 20  1  0  0  0
 18 21  1  0  0  0
 19 22  1  0  0  0
  4  5  1  0  0  0
 25 26  1  0  0  0
 29 31  1  0  0  0
 29 32  1  0  0  0
M  END
> <minimizedAffinity>
-6.33553

> <CNNscore>
0.1909810156

> <CNNaffinity>
5.7055253983

> <CNN_VS>
1.0896470547

> <CNNaffinity_variance>
0.4309850335

$$$$
[H]c1nc(N([H])c2c([H])c(Cl)c([H])c([H])c2N([H])c2c([H])c(C(=O)N3C([H])([H])C([H])([H])C([H])(N4C([H])([H])C([H])([H])N([H])C([H])([H])C4([H])[H])C([H])([H])C3([H])[H])c([H])c([H])c2Cl)nc(N2C([H])([H])N(C([H])([H])[H])C([H])([H])C2([H])[H])c1[H]


 45 50  0  0  0  0  0  0  0  0999 V2000
    2.1524  -51.7372  -20.2497 N   0  0  0  0  0  0  0  0  0  0  0  0
    2.4074  -52.7261  -20.5669 H   0  0  0  0  0  0  0  0  0  0  0  0
    0.2486  -52.7838  -19.0838 C   0  0  0  0  0  0  0  0  0  0  0  0
   -0.6857  -52.6950  -18.0845 C   0  0  0  0  0  0  0  0  0  0  0  0
   -0.8327  -51.5617  -17.2827 C   0  0  0  0  0  0  0  0  0  0  0  0
   -2.0656  -51.5307  -16.0155 Cl  0  0  0  0  0  0  0  0  0  0  0  0
   -0.0128  -50.5025  -17.5045 C   0  0  0  0  0  0  0  0  0  0  0  0
    0.9387  -50.5902  -18.5191 C   0  0  0  0  0  0  0  0  0  0  0  0
    1.1066  -51.6809  -19.3187 C   0  0  0  0  0  0  0  0  0  0  0  0
    0.3802  -53.8960  -19.9439 N   0  0  0  0  0  0  0  0  0  0  0  0
    0.8933  -54.7673  -19.5739 H   0  0  0  0  0  0  0  0  0  0  0  0
    0.0389  -53.5208  -23.5995 C   0  0  0  0  0  0  0  0  0  0  0  0
   -1.0396  -54.3354  -23.8310 C   0  0  0  0  0  0  0  0  0  0  0  0
   -1.5968  -54.9762  -22.7476 C   0  0  0  0  0  0  0  0  0  0  0  0
   -1.1334  -54.8332  -21.5164 N   0  0  0  0  0  0  0  0  0  0  0  0
   -0.0584  -54.0233  -21.2742 C   0  0  0  0  0  0  0  0  0  0  0  0
    0.4632  -53.4167  -22.3259 N   0  0  0  0  0  0  0  0  0  0  0  0
   -0.3157  -53.0418  -27.4314 C   0  0  0  0  0  0  0  0  0  0  0  0
    0.5952  -52.1056  -26.8073 N   0  0  0  0  0  0  0  0  0  0  0  0
    1.8908  -52.6627  -26.5943 C   0  0  0  0  0  0  0  0  0  0  0  0
    2.0375  -53.0134  -25.1517 C   0  0  0  0  0  0  0  0  0  0  0  0
    0.6613  -52.8316  -24.6606 N   0  0  0  0  0  0  0  0  0  0  0  0
    0.0914  -51.8053  -25.4865 C   0  0  0  0  0  0  0  0  0  0  0  0
    2.9248  -50.7044  -20.8118 C   0  0  0  0  0  0  0  0  0  0  0  0
    2.8037  -50.2223  -22.0861 C   0  0  0  0  0  0  0  0  0  0  0  0
    3.6211  -49.2344  -22.6576 C   0  0  0  0  0  0  0  0  0  0  0  0
    4.6147  -48.7298  -21.8573 C   0  0  0  0  0  0  0  0  0  0  0  0
    4.7763  -49.1932  -20.5485 C   0  0  0  0  0  0  0  0  0  0  0  0
    3.9526  -50.1584  -20.0323 C   0  0  0  0  0  0  0  0  0  0  0  0
    4.1440  -50.7411  -18.3891 Cl  0  0  0  0  0  0  0  0  0  0  0  0
    3.4380  -48.8482  -24.0297 C   0  0  0  0  0  0  0  0  0  0  0  0
    2.6637  -49.6815  -24.6916 O   0  0  0  0  0  0  0  0  0  0  0  0
    3.9004  -47.7951  -24.7897 N   0  0  0  0  0  0  0  0  0  0  0  0
    4.6827  -46.6680  -24.4269 C   0  0  0  0  0  0  0  0  0  0  0  0
    6.0449  -46.7017  -25.1009 C   0  0  0  0  0  0  0  0  0  0  0  0
    5.8890  -47.0360  -26.5741 C   0  0  0  0  0  0  0  0  0  0  0  0
    4.9758  -48.1860  -26.8498 C   0  0  0  0  0  0  0  0  0  0  0  0
    3.5944  -47.8607  -26.2752 C   0  0  0  0  0  0  0  0  0  0  0  0
    7.2040  -47.4124  -27.0554 N   0  0  0  0  0  0  0  0  0  0  0  0
    8.0253  -47.9456  -26.0028 C   0  0  0  0  0  0  0  0  0  0  0  0
    8.5554  -49.3243  -26.3508 C   0  0  0  0  0  0  0  0  0  0  0  0
    9.3207  -49.3299  -27.5609 N   0  0  0  0  0  0  0  0  0  0  0  0
    8.6368  -48.5355  -28.5740 C   0  0  0  0  0  0  0  0  0  0  0  0
    7.1876  -48.3172  -28.1611 C   0  0  0  0  0  0  0  0  0  0  0  0
    9.3856  -50.3277  -27.8874 H   0  0  0  0  0  0  0  0  0  0  0  0
 18 19  1  0  0  0
 19 20  1  0  0  0
 20 21  1  0  0  0
 21 22  1  0  0  0
 22 23  1  0  0  0
 22 12  1  0  0  0
 12 13  2  0  0  0
 13 14  1  0  0  0
 14 15  2  0  0  0
 15 16  1  0  0  0
 16 10  1  0  0  0
 10  3  1  0  0  0
  3  4  2  0  0  0
  4  5  1  0  0  0
  5  6  1  0  0  0
  5  7  2  0  0  0
  7  8  1  0  0  0
  8  9  2  0  0  0
  9  1  1  0  0  0
  1 24  1  0  0  0
 24 25  2  0  0  0
 25 26  1  0  0  0
 26 27  2  0  0  0
 27 28  1  0  0  0
 28 29  2  0  0  0
 29 30  1  0  0  0
 26 31  1  0  0  0
 31 32  2  0  0  0
 31 33  1  0  0  0
 33 34  1  0  0  0
 34 35  1  0  0  0
 35 36  1  0  0  0
 36 37  1  0  0  0
 37 38  1  0  0  0
 36 39  1  0  0  0
 39 40  1  0  0  0
 40 41  1  0  0  0
 41 42  1  0  0  0
 42 43  1  0  0  0
 43 44  1  0  0  0
 16 17  2  0  0  0
 23 19  1  0  0  0
 17 12  1  0  0  0
  9  3  1  0  0  0
 29 24  1  0  0  0
 38 33  1  0  0  0
 44 39  1  0  0  0
 10 11  1  0  0  0
  1  2  1  0  0  0
 42 45  1  0  0  0
M  END
> <minimizedAffinity>
-8.30723

> <CNNscore>
0.4441349208

> <CNNaffinity>
7.6197128296

> <CNN_VS>
3.3841805458

> <CNNaffinity_variance>
0.0342908949

$$$$
[H]c1nc(N([H])c2c([H])c(Cl)c([H])c([H])c2N([H])c2c([H])c(C(=O)N3C([H])([H])C([H])([H])C([H])(N4C([H])([H])C([H])([H])N([H])C([H])([H])C4([H])[H])C([H])([H])C3([H])[H])c([H])c([H])c2Cl)nc(N2C([H])([H])N(C([H])([H])[H])C([H])([H])C2([H])[H])c1[H]


 45 50  0  0  0  0  0  0  0  0999 V2000
    3.0727  -51.4638  -23.9592 N   0  0  0  0  0  0  0  0  0  0  0  0
    3.6413  -52.3494  -23.7696 H   0  0  0  0  0  0  0  0  0  0  0  0
    0.7825  -52.3692  -23.8393 C   0  0  0  0  0  0  0  0  0  0  0  0
   -0.4536  -52.4687  -24.4237 C   0  0  0  0  0  0  0  0  0  0  0  0
   -0.7429  -51.9348  -25.6808 C   0  0  0  0  0  0  0  0  0  0  0  0
   -2.3654  -52.1095  -26.3619 Cl  0  0  0  0  0  0  0  0  0  0  0  0
    0.2452  -51.2893  -26.3516 C   0  0  0  0  0  0  0  0  0  0  0  0
    1.5027  -51.1858  -25.7597 C   0  0  0  0  0  0  0  0  0  0  0  0
    1.8168  -51.6961  -24.5357 C   0  0  0  0  0  0  0  0  0  0  0  0
    1.1154  -52.9480  -22.5949 N   0  0  0  0  0  0  0  0  0  0  0  0
    1.7522  -53.8161  -22.5918 H   0  0  0  0  0  0  0  0  0  0  0  0
    0.6975  -51.0835  -19.4375 C   0  0  0  0  0  0  0  0  0  0  0  0
   -0.1761  -51.9090  -18.7777 C   0  0  0  0  0  0  0  0  0  0  0  0
   -0.5873  -53.0503  -19.4286 C   0  0  0  0  0  0  0  0  0  0  0  0
   -0.1741  -53.3678  -20.6448 N   0  0  0  0  0  0  0  0  0  0  0  0
    0.6972  -52.5516  -21.3118 C   0  0  0  0  0  0  0  0  0  0  0  0
    1.0807  -51.4611  -20.6717 N   0  0  0  0  0  0  0  0  0  0  0  0
    4.0352  -49.3797  -18.4395 C   0  0  0  0  0  0  0  0  0  0  0  0
    2.8875  -48.4999  -18.3737 N   0  0  0  0  0  0  0  0  0  0  0  0
    2.1453  -48.6587  -17.1661 C   0  0  0  0  0  0  0  0  0  0  0  0
    0.9110  -49.4453  -17.4546 C   0  0  0  0  0  0  0  0  0  0  0  0
    1.1625  -49.8972  -18.8332 N   0  0  0  0  0  0  0  0  0  0  0  0
    1.9755  -48.8758  -19.4298 C   0  0  0  0  0  0  0  0  0  0  0  0
    3.6875  -50.2576  -23.5766 C   0  0  0  0  0  0  0  0  0  0  0  0
    3.7361  -49.1152  -24.3273 C   0  0  0  0  0  0  0  0  0  0  0  0
    4.4061  -47.9367  -23.9630 C   0  0  0  0  0  0  0  0  0  0  0  0
    5.0589  -47.9567  -22.7565 C   0  0  0  0  0  0  0  0  0  0  0  0
    5.0370  -49.1025  -21.9562 C   0  0  0  0  0  0  0  0  0  0  0  0
    4.3678  -50.2302  -22.3524 C   0  0  0  0  0  0  0  0  0  0  0  0
    4.3295  -51.6701  -21.3517 Cl  0  0  0  0  0  0  0  0  0  0  0  0
    4.4393  -46.8156  -24.8617 C   0  0  0  0  0  0  0  0  0  0  0  0
    3.3540  -46.0749  -24.7879 O   0  0  0  0  0  0  0  0  0  0  0  0
    5.3639  -46.3587  -25.7765 N   0  0  0  0  0  0  0  0  0  0  0  0
    6.6660  -46.8300  -26.0874 C   0  0  0  0  0  0  0  0  0  0  0  0
    6.7312  -47.3769  -27.5042 C   0  0  0  0  0  0  0  0  0  0  0  0
    6.0564  -46.4142  -28.4657 C   0  0  0  0  0  0  0  0  0  0  0  0
    4.7281  -45.9122  -28.0012 C   0  0  0  0  0  0  0  0  0  0  0  0
    4.9167  -45.2052  -26.6563 C   0  0  0  0  0  0  0  0  0  0  0  0
    5.8275  -47.1483  -29.6950 N   0  0  0  0  0  0  0  0  0  0  0  0
    6.6223  -46.6366  -30.7782 C   0  0  0  0  0  0  0  0  0  0  0  0
    7.4701  -47.7239  -31.4122 C   0  0  0  0  0  0  0  0  0  0  0  0
    6.6853  -48.8132  -31.9098 N   0  0  0  0  0  0  0  0  0  0  0  0
    5.6629  -49.1642  -30.9317 C   0  0  0  0  0  0  0  0  0  0  0  0
    6.0183  -48.5596  -29.5803 C   0  0  0  0  0  0  0  0  0  0  0  0
    7.3325  -49.6314  -32.0445 H   0  0  0  0  0  0  0  0  0  0  0  0
 18 19  1  0  0  0
 19 20  1  0  0  0
 20 21  1  0  0  0
 21 22  1  0  0  0
 22 23  1  0  0  0
 22 12  1  0  0  0
 12 13  2  0  0  0
 13 14  1  0  0  0
 14 15  2  0  0  0
 15 16  1  0  0  0
 16 10  1  0  0  0
 10  3  1  0  0  0
  3  4  2  0  0  0
  4  5  1  0  0  0
  5  6  1  0  0  0
  5  7  2  0  0  0
  7  8  1  0  0  0
  8  9  2  0  0  0
  9  1  1  0  0  0
  1 24  1  0  0  0
 24 25  2  0  0  0
 25 26  1  0  0  0
 26 27  2  0  0  0
 27 28  1  0  0  0
 28 29  2  0  0  0
 29 30  1  0  0  0
 26 31  1  0  0  0
 31 32  2  0  0  0
 31 33  1  0  0  0
 33 34  1  0  0  0
 34 35  1  0  0  0
 35 36  1  0  0  0
 36 37  1  0  0  0
 37 38  1  0  0  0
 36 39  1  0  0  0
 39 40  1  0  0  0
 40 41  1  0  0  0
 41 42  1  0  0  0
 42 43  1  0  0  0
 43 44  1  0  0  0
 16 17  2  0  0  0
 23 19  1  0  0  0
 17 12  1  0  0  0
  9  3  1  0  0  0
 29 24  1  0  0  0
 38 33  1  0  0  0
 44 39  1  0  0  0
 10 11  1  0  0  0
  1  2  1  0  0  0
 42 45  1  0  0  0
M  END
> <minimizedAffinity>
-7.45445

> <CNNscore>
0.2303641289

> <CNNaffinity>
7.2329072952

> <CNN_VS>
1.6662024260

> <CNNaffinity_variance>
0.1586740762

$$$$
[H]c1nc(N([H])c2c([H])c(Cl)c([H])c([H])c2N([H])c2c([H])c(C(=O)N3C([H])([H])C([H])([H])C([H])(N4C([H])([H])C([H])([H])N([H])C([H])([H])C4([H])[H])C([H])([H])C3([H])[H])c([H])c([H])c2Cl)nc(N2C([H])([H])N(C([H])([H])[H])C([H])([H])C2([H])[H])c1[H]


 45 50  0  0  0  0  0  0  0  0999 V2000
    2.4784  -52.1022  -25.1218 N   0  0  0  0  0  0  0  0  0  0  0  0
    2.4497  -52.7571  -24.2769 H   0  0  0  0  0  0  0  0  0  0  0  0
    0.1685  -52.1861  -25.9800 C   0  0  0  0  0  0  0  0  0  0  0  0
   -0.6612  -52.4217  -27.0455 C   0  0  0  0  0  0  0  0  0  0  0  0
   -0.1985  -52.8839  -28.2789 C   0  0  0  0  0  0  0  0  0  0  0  0
   -1.3388  -53.1629  -29.6013 Cl  0  0  0  0  0  0  0  0  0  0  0  0
    1.1322  -53.1088  -28.4268 C   0  0  0  0  0  0  0  0  0  0  0  0
    1.9784  -52.8692  -27.3456 C   0  0  0  0  0  0  0  0  0  0  0  0
    1.5581  -52.4192  -26.1298 C   0  0  0  0  0  0  0  0  0  0  0  0
   -0.2809  -51.7722  -24.7069 N   0  0  0  0  0  0  0  0  0  0  0  0
   -0.7661  -50.8145  -24.6253 H   0  0  0  0  0  0  0  0  0  0  0  0
    0.6543  -52.6746  -21.2527 C   0  0  0  0  0  0  0  0  0  0  0  0
    0.0309  -53.8905  -21.1384 C   0  0  0  0  0  0  0  0  0  0  0  0
   -0.6788  -54.3461  -22.2264 C   0  0  0  0  0  0  0  0  0  0  0  0
   -0.7756  -53.6613  -23.3545 N   0  0  0  0  0  0  0  0  0  0  0  0
   -0.1578  -52.4475  -23.4792 C   0  0  0  0  0  0  0  0  0  0  0  0
    0.5185  -52.0266  -22.4250 N   0  0  0  0  0  0  0  0  0  0  0  0
    1.1313  -49.3326  -19.3441 C   0  0  0  0  0  0  0  0  0  0  0  0
    1.7287  -50.4735  -18.6830 N   0  0  0  0  0  0  0  0  0  0  0  0
    3.0061  -50.8102  -19.2209 C   0  0  0  0  0  0  0  0  0  0  0  0
    2.8636  -52.0102  -20.0957 C   0  0  0  0  0  0  0  0  0  0  0  0
    1.3997  -52.1443  -20.1795 N   0  0  0  0  0  0  0  0  0  0  0  0
    0.8951  -51.6256  -18.9399 C   0  0  0  0  0  0  0  0  0  0  0  0
    3.4124  -51.0531  -25.0416 C   0  0  0  0  0  0  0  0  0  0  0  0
    3.2949  -49.8337  -25.6499 C   0  0  0  0  0  0  0  0  0  0  0  0
    4.2617  -48.8165  -25.6149 C   0  0  0  0  0  0  0  0  0  0  0  0
    5.4075  -49.0909  -24.9120 C   0  0  0  0  0  0  0  0  0  0  0  0
    5.5715  -50.3242  -24.2748 C   0  0  0  0  0  0  0  0  0  0  0  0
    4.5991  -51.2870  -24.3349 C   0  0  0  0  0  0  0  0  0  0  0  0
    4.7936  -52.8348  -23.5330 Cl  0  0  0  0  0  0  0  0  0  0  0  0
    4.0541  -47.5953  -26.3437 C   0  0  0  0  0  0  0  0  0  0  0  0
    3.0095  -46.9201  -25.9137 O   0  0  0  0  0  0  0  0  0  0  0  0
    4.7165  -46.9893  -27.3898 N   0  0  0  0  0  0  0  0  0  0  0  0
    5.9083  -47.3587  -28.0660 C   0  0  0  0  0  0  0  0  0  0  0  0
    5.6295  -47.7278  -29.5141 C   0  0  0  0  0  0  0  0  0  0  0  0
    4.7230  -46.6891  -30.1511 C   0  0  0  0  0  0  0  0  0  0  0  0
    3.5432  -46.3088  -29.3169 C   0  0  0  0  0  0  0  0  0  0  0  0
    4.0478  -45.7605  -27.9793 C   0  0  0  0  0  0  0  0  0  0  0  0
    4.2084  -47.2800  -31.3711 N   0  0  0  0  0  0  0  0  0  0  0  0
    2.9070  -46.7682  -31.7045 C   0  0  0  0  0  0  0  0  0  0  0  0
    2.8763  -46.1880  -33.1065 C   0  0  0  0  0  0  0  0  0  0  0  0
    3.2499  -47.1434  -34.1053 N   0  0  0  0  0  0  0  0  0  0  0  0
    4.4160  -47.8918  -33.6521 C   0  0  0  0  0  0  0  0  0  0  0  0
    5.0797  -47.1552  -32.4967 C   0  0  0  0  0  0  0  0  0  0  0  0
    3.4979  -46.6077  -34.9759 H   0  0  0  0  0  0  0  0  0  0  0  0
 18 19  1  0  0  0
 19 20  1  0  0  0
 20 21  1  0  0  0
 21 22  1  0  0  0
 22 23  1  0  0  0
 22 12  1  0  0  0
 12 13  2  0  0  0
 13 14  1  0  0  0
 14 15  2  0  0  0
 15 16  1  0  0  0
 16 10  1  0  0  0
 10  3  1  0  0  0
  3  4  2  0  0  0
  4  5  1  0  0  0
  5  6  1  0  0  0
  5  7  2  0  0  0
  7  8  1  0  0  0
  8  9  2  0  0  0
  9  1  1  0  0  0
  1 24  1  0  0  0
 24 25  2  0  0  0
 25 26  1  0  0  0
 26 27  2  0  0  0
 27 28  1  0  0  0
 28 29  2  0  0  0
 29 30  1  0  0  0
 26 31  1  0  0  0
 31 32  2  0  0  0
 31 33  1  0  0  0
 33 34  1  0  0  0
 34 35  1  0  0  0
 35 36  1  0  0  0
 36 37  1  0  0  0
 37 38  1  0  0  0
 36 39  1  0  0  0
 39 40  1  0  0  0
 40 41  1  0  0  0
 41 42  1  0  0  0
 42 43  1  0  0  0
 43 44  1  0  0  0
 16 17  2  0  0  0
 23 19  1  0  0  0
 17 12  1  0  0  0
  9  3  1  0  0  0
 29 24  1  0  0  0
 38 33  1  0  0  0
 44 39  1  0  0  0
 10 11  1  0  0  0
  1  2  1  0  0  0
 42 45  1  0  0  0
M  END
> <minimizedAffinity>
-8.91470

> <CNNscore>
0.1880756617

> <CNNaffinity>
7.1509828568

> <CNN_VS>
1.3449258804

> <CNNaffinity_variance>
0.7121344805

$$$$
[H]c1nc(N([H])c2c([H])c(Cl)c([H])c([H])c2N([H])c2c([H])c(C(=O)N3C([H])([H])C([H])([H])C([H])(N4C([H])([H])C([H])([H])N([H])C([H])([H])C4([H])[H])C([H])([H])C3([H])[H])c([H])c([H])c2Cl)nc(N2C([H])([H])N(C([H])([H])[H])C([H])([H])C2([H])[H])c1[H]


 45 50  0  0  0  0  0  0  0  0999 V2000
    0.4108  -50.6669  -19.9875 N   0  0  0  0  0  0  0  0  0  0  0  0
   -0.0975  -50.4957  -19.0623 H   0  0  0  0  0  0  0  0  0  0  0  0
   -0.4126  -52.9909  -19.9657 C   0  0  0  0  0  0  0  0  0  0  0  0
   -0.8895  -54.0554  -20.6860 C   0  0  0  0  0  0  0  0  0  0  0  0
   -0.9773  -54.0496  -22.0793 C   0  0  0  0  0  0  0  0  0  0  0  0
   -1.6041  -55.4673  -22.9303 Cl  0  0  0  0  0  0  0  0  0  0  0  0
   -0.5719  -52.9396  -22.7476 C   0  0  0  0  0  0  0  0  0  0  0  0
   -0.0874  -51.8554  -22.0181 C   0  0  0  0  0  0  0  0  0  0  0  0
    0.0114  -51.8302  -20.6590 C   0  0  0  0  0  0  0  0  0  0  0  0
   -0.2620  -52.9927  -18.5617 N   0  0  0  0  0  0  0  0  0  0  0  0
    0.6618  -53.3616  -18.1497 H   0  0  0  0  0  0  0  0  0  0  0  0
   -1.8684  -51.3046  -15.6998 C   0  0  0  0  0  0  0  0  0  0  0  0
   -3.0959  -51.9155  -15.7108 C   0  0  0  0  0  0  0  0  0  0  0  0
   -3.3267  -52.8617  -16.6838 C   0  0  0  0  0  0  0  0  0  0  0  0
   -2.4197  -53.1924  -17.5887 N   0  0  0  0  0  0  0  0  0  0  0  0
   -1.1922  -52.5895  -17.5868 C   0  0  0  0  0  0  0  0  0  0  0  0
   -0.9890  -51.6841  -16.6460 N   0  0  0  0  0  0  0  0  0  0  0  0
    1.2185  -49.5425  -14.1490 C   0  0  0  0  0  0  0  0  0  0  0  0
   -0.0422  -48.9146  -13.8142 N   0  0  0  0  0  0  0  0  0  0  0  0
   -0.7097  -49.5689  -12.7368 C   0  0  0  0  0  0  0  0  0  0  0  0
   -1.8256  -50.3929  -13.2857 C   0  0  0  0  0  0  0  0  0  0  0  0
   -1.5602  -50.3260  -14.7324 N   0  0  0  0  0  0  0  0  0  0  0  0
   -0.9267  -49.0562  -14.9482 C   0  0  0  0  0  0  0  0  0  0  0  0
    1.3545  -49.6881  -20.3486 C   0  0  0  0  0  0  0  0  0  0  0  0
    1.8636  -49.4972  -21.6037 C   0  0  0  0  0  0  0  0  0  0  0  0
    2.8515  -48.5586  -21.9410 C   0  0  0  0  0  0  0  0  0  0  0  0
    3.3313  -47.7855  -20.9142 C   0  0  0  0  0  0  0  0  0  0  0  0
    2.8409  -47.9464  -19.6152 C   0  0  0  0  0  0  0  0  0  0  0  0
    1.8743  -48.8751  -19.3332 C   0  0  0  0  0  0  0  0  0  0  0  0
    1.2484  -49.0792  -17.7075 Cl  0  0  0  0  0  0  0  0  0  0  0  0
    3.3541  -48.4883  -23.2856 C   0  0  0  0  0  0  0  0  0  0  0  0
    3.4067  -47.2554  -23.7430 O   0  0  0  0  0  0  0  0  0  0  0  0
    3.7895  -49.4357  -24.1875 N   0  0  0  0  0  0  0  0  0  0  0  0
    3.9536  -50.8383  -24.0465 C   0  0  0  0  0  0  0  0  0  0  0  0
    2.9878  -51.5995  -24.9400 C   0  0  0  0  0  0  0  0  0  0  0  0
    2.9898  -51.0030  -26.3366 C   0  0  0  0  0  0  0  0  0  0  0  0
    2.8991  -49.5120  -26.3679 C   0  0  0  0  0  0  0  0  0  0  0  0
    4.0845  -48.9345  -25.5898 C   0  0  0  0  0  0  0  0  0  0  0  0
    1.8111  -51.5150  -27.0080 N   0  0  0  0  0  0  0  0  0  0  0  0
    2.0995  -52.7070  -27.7582 C   0  0  0  0  0  0  0  0  0  0  0  0
    1.1941  -53.8556  -27.3532 C   0  0  0  0  0  0  0  0  0  0  0  0
   -0.1940  -53.5471  -27.5209 N   0  0  0  0  0  0  0  0  0  0  0  0
   -0.4579  -52.2019  -27.0250 C   0  0  0  0  0  0  0  0  0  0  0  0
    0.6968  -51.7455  -26.1439 C   0  0  0  0  0  0  0  0  0  0  0  0
   -0.7416  -54.2411  -26.9509 H   0  0  0  0  0  0  0  0  0  0  0  0
 18 19  1  0  0  0
 19 20  1  0  0  0
 20 21  1  0  0  0
 21 22  1  0  0  0
 22 23  1  0  0  0
 22 12  1  0  0  0
 12 13  2  0  0  0
 13 14  1  0  0  0
 14 15  2  0  0  0
 15 16  1  0  0  0
 16 10  1  0  0  0
 10  3  1  0  0  0
  3  4  2  0  0  0
  4  5  1  0  0  0
  5  6  1  0  0  0
  5  7  2  0  0  0
  7  8  1  0  0  0
  8  9  2  0  0  0
  9  1  1  0  0  0
  1 24  1  0  0  0
 24 25  2  0  0  0
 25 26  1  0  0  0
 26 27  2  0  0  0
 27 28  1  0  0  0
 28 29  2  0  0  0
 29 30  1  0  0  0
 26 31  1  0  0  0
 31 32  2  0  0  0
 31 33  1  0  0  0
 33 34  1  0  0  0
 34 35  1  0  0  0
 35 36  1  0  0  0
 36 37  1  0  0  0
 37 38  1  0  0  0
 36 39  1  0  0  0
 39 40  1  0  0  0
 40 41  1  0  0  0
 41 42  1  0  0  0
 42 43  1  0  0  0
 43 44  1  0  0  0
 16 17  2  0  0  0
 23 19  1  0  0  0
 17 12  1  0  0  0
  9  3  1  0  0  0
 29 24  1  0  0  0
 38 33  1  0  0  0
 44 39  1  0  0  0
 10 11  1  0  0  0
  1  2  1  0  0  0
 42 45  1  0  0  0
M  END
> <minimizedAffinity>
-8.70237

> <CNNscore>
0.1664003581

> <CNNaffinity>
7.4397597313

> <CNN_VS>
1.2379786968

> <CNNaffinity_variance>
0.3490122557

$$$$
[H]c1nc(N([H])c2c([H])c(Cl)c([H])c([H])c2N([H])c2c([H])c(C(=O)N3C([H])([H])C([H])([H])C([H])(N4C([H])([H])C([H])([H])N([H])C([H])([H])C4([H])[H])C([H])([H])C3([H])[H])c([H])c([H])c2Cl)nc(N2C([H])([H])N(C([H])([H])[H])C([H])([H])C2([H])[H])c1[H]


 45 50  0  0  0  0  0  0  0  0999 V2000
    1.0086  -53.0787  -23.7644 N   0  0  0  0  0  0  0  0  0  0  0  0
    1.6635  -53.9184  -23.6665 H   0  0  0  0  0  0  0  0  0  0  0  0
    1.4456  -52.9200  -26.1858 C   0  0  0  0  0  0  0  0  0  0  0  0
    0.9283  -52.7749  -27.4470 C   0  0  0  0  0  0  0  0  0  0  0  0
   -0.4278  -52.5474  -27.6886 C   0  0  0  0  0  0  0  0  0  0  0  0
   -1.0112  -52.3708  -29.3486 Cl  0  0  0  0  0  0  0  0  0  0  0  0
   -1.2687  -52.4667  -26.6259 C   0  0  0  0  0  0  0  0  0  0  0  0
   -0.7460  -52.6147  -25.3425 C   0  0  0  0  0  0  0  0  0  0  0  0
    0.5715  -52.8368  -25.0737 C   0  0  0  0  0  0  0  0  0  0  0  0
    2.8199  -53.0953  -25.9124 N   0  0  0  0  0  0  0  0  0  0  0  0
    3.3159  -53.9550  -26.3297 H   0  0  0  0  0  0  0  0  0  0  0  0
    4.7933  -50.2575  -24.6189 C   0  0  0  0  0  0  0  0  0  0  0  0
    5.3476  -50.8311  -23.5036 C   0  0  0  0  0  0  0  0  0  0  0  0
    5.0266  -52.1429  -23.2368 C   0  0  0  0  0  0  0  0  0  0  0  0
    4.2172  -52.8517  -24.0071 N   0  0  0  0  0  0  0  0  0  0  0  0
    3.6590  -52.2895  -25.1219 C   0  0  0  0  0  0  0  0  0  0  0  0
    3.9783  -51.0299  -25.3617 N   0  0  0  0  0  0  0  0  0  0  0  0
    3.6094  -47.5101  -27.0865 C   0  0  0  0  0  0  0  0  0  0  0  0
    4.4715  -47.0173  -26.0332 N   0  0  0  0  0  0  0  0  0  0  0  0
    5.8536  -47.2335  -26.3118 C   0  0  0  0  0  0  0  0  0  0  0  0
    6.3382  -48.3868  -25.4990 C   0  0  0  0  0  0  0  0  0  0  0  0
    5.0769  -48.9179  -24.9558 N   0  0  0  0  0  0  0  0  0  0  0  0
    4.2022  -47.7859  -24.8394 C   0  0  0  0  0  0  0  0  0  0  0  0
    0.7059  -52.4055  -22.5667 C   0  0  0  0  0  0  0  0  0  0  0  0
    1.1775  -51.1738  -22.2042 C   0  0  0  0  0  0  0  0  0  0  0  0
    0.9196  -50.5380  -20.9795 C   0  0  0  0  0  0  0  0  0  0  0  0
    0.1331  -51.2265  -20.0909 C   0  0  0  0  0  0  0  0  0  0  0  0
   -0.3704  -52.4888  -20.4183 C   0  0  0  0  0  0  0  0  0  0  0  0
   -0.0934  -53.0697  -21.6276 C   0  0  0  0  0  0  0  0  0  0  0  0
   -0.7263  -54.6502  -22.0493 Cl  0  0  0  0  0  0  0  0  0  0  0  0
    1.5196  -49.2660  -20.6839 C   0  0  0  0  0  0  0  0  0  0  0  0
    0.7915  -48.2529  -21.1029 O   0  0  0  0  0  0  0  0  0  0  0  0
    2.6887  -48.8899  -20.0576 N   0  0  0  0  0  0  0  0  0  0  0  0
    3.6840  -49.6706  -19.4142 C   0  0  0  0  0  0  0  0  0  0  0  0
    5.0072  -49.6009  -20.1592 C   0  0  0  0  0  0  0  0  0  0  0  0
    5.3293  -48.1600  -20.5152 C   0  0  0  0  0  0  0  0  0  0  0  0
    4.1854  -47.4032  -21.1076 C   0  0  0  0  0  0  0  0  0  0  0  0
    3.0255  -47.4105  -20.1082 C   0  0  0  0  0  0  0  0  0  0  0  0
    6.3750  -48.2045  -21.5186 N   0  0  0  0  0  0  0  0  0  0  0  0
    6.6449  -46.9030  -22.0663 C   0  0  0  0  0  0  0  0  0  0  0  0
    8.1108  -46.5332  -21.9337 C   0  0  0  0  0  0  0  0  0  0  0  0
    8.9760  -47.4762  -22.5756 N   0  0  0  0  0  0  0  0  0  0  0  0
    8.5358  -48.8310  -22.2662 C   0  0  0  0  0  0  0  0  0  0  0  0
    7.5930  -48.8025  -21.0710 C   0  0  0  0  0  0  0  0  0  0  0  0
    9.9435  -47.3287  -22.1898 H   0  0  0  0  0  0  0  0  0  0  0  0
 18 19  1  0  0  0
 19 20  1  0  0  0
 20 21  1  0  0  0
 21 22  1  0  0  0
 22 23  1  0  0  0
 22 12  1  0  0  0
 12 13  2  0  0  0
 13 14  1  0  0  0
 14 15  2  0  0  0
 15 16  1  0  0  0
 16 10  1  0  0  0
 10  3  1  0  0  0
  3  4  2  0  0  0
  4  5  1  0  0  0
  5  6  1  0  0  0
  5  7  2  0  0  0
  7  8  1  0  0  0
  8  9  2  0  0  0
  9  1  1  0  0  0
  1 24  1  0  0  0
 24 25  2  0  0  0
 25 26  1  0  0  0
 26 27  2  0  0  0
 27 28  1  0  0  0
 28 29  2  0  0  0
 29 30  1  0  0  0
 26 31  1  0  0  0
 31 32  2  0  0  0
 31 33  1  0  0  0
 33 34  1  0  0  0
 34 35  1  0  0  0
 35 36  1  0  0  0
 36 37  1  0  0  0
 37 38  1  0  0  0
 36 39  1  0  0  0
 39 40  1  0  0  0
 40 41  1  0  0  0
 41 42  1  0  0  0
 42 43  1  0  0  0
 43 44  1  0  0  0
 16 17  2  0  0  0
 23 19  1  0  0  0
 17 12  1  0  0  0
  9  3  1  0  0  0
 29 24  1  0  0  0
 38 33  1  0  0  0
 44 39  1  0  0  0
 10 11  1  0  0  0
  1  2  1  0  0  0
 42 45  1  0  0  0
M  END
> <minimizedAffinity>
-8.84294

> <CNNscore>
0.1387088597

> <CNNaffinity>
6.9706678391

> <CNN_VS>
0.9668933749

> <CNNaffinity_variance>
0.9391331673

$$$$
[H]c1nc(N([H])c2c([H])c(Cl)c([H])c([H])c2N([H])c2c([H])c(C(=O)N3C([H])([H])C([H])([H])C([H])(N4C([H])([H])C([H])([H])N([H])C([H])([H])C4([H])[H])C([H])([H])C3([H])[H])c([H])c([H])c2Cl)nc(N2C([H])([H])N(C([H])([H])[H])C([H])([H])C2([H])[H])c1[H]


 45 50  0  0  0  0  0  0  0  0999 V2000
    2.7890  -52.4165  -25.5682 N   0  0  0  0  0  0  0  0  0  0  0  0
    3.2455  -53.3605  -25.3581 H   0  0  0  0  0  0  0  0  0  0  0  0
    0.3575  -52.6001  -25.2036 C   0  0  0  0  0  0  0  0  0  0  0  0
   -0.8989  -52.5766  -25.7517 C   0  0  0  0  0  0  0  0  0  0  0  0
   -1.1251  -52.4628  -27.1246 C   0  0  0  0  0  0  0  0  0  0  0  0
   -2.7798  -52.4416  -27.7479 Cl  0  0  0  0  0  0  0  0  0  0  0  0
   -0.0517  -52.3716  -27.9508 C   0  0  0  0  0  0  0  0  0  0  0  0
    1.2268  -52.3943  -27.3966 C   0  0  0  0  0  0  0  0  0  0  0  0
    1.4807  -52.5048  -26.0622 C   0  0  0  0  0  0  0  0  0  0  0  0
    0.6136  -52.7699  -23.8254 N   0  0  0  0  0  0  0  0  0  0  0  0
    0.7470  -53.7711  -23.4524 H   0  0  0  0  0  0  0  0  0  0  0  0
    1.6843  -49.8668  -21.8139 C   0  0  0  0  0  0  0  0  0  0  0  0
    0.7712  -49.9245  -20.7926 C   0  0  0  0  0  0  0  0  0  0  0  0
   -0.1644  -50.9336  -20.8323 C   0  0  0  0  0  0  0  0  0  0  0  0
   -0.2084  -51.8298  -21.8048 N   0  0  0  0  0  0  0  0  0  0  0  0
    0.6975  -51.7815  -22.8282 C   0  0  0  0  0  0  0  0  0  0  0  0
    1.5876  -50.8064  -22.7733 N   0  0  0  0  0  0  0  0  0  0  0  0
    3.3990  -47.3378  -19.4257 C   0  0  0  0  0  0  0  0  0  0  0  0
    4.0631  -47.4766  -20.7045 N   0  0  0  0  0  0  0  0  0  0  0  0
    3.4449  -46.7001  -21.7288 C   0  0  0  0  0  0  0  0  0  0  0  0
    2.6383  -47.6018  -22.6017 C   0  0  0  0  0  0  0  0  0  0  0  0
    2.6726  -48.8612  -21.8397 N   0  0  0  0  0  0  0  0  0  0  0  0
    3.9225  -48.8492  -21.1342 C   0  0  0  0  0  0  0  0  0  0  0  0
    3.5807  -51.2873  -25.2900 C   0  0  0  0  0  0  0  0  0  0  0  0
    3.4426  -50.0555  -25.8684 C   0  0  0  0  0  0  0  0  0  0  0  0
    4.2775  -48.9525  -25.6299 C   0  0  0  0  0  0  0  0  0  0  0  0
    5.3081  -49.1500  -24.7460 C   0  0  0  0  0  0  0  0  0  0  0  0
    5.4882  -50.3926  -24.1316 C   0  0  0  0  0  0  0  0  0  0  0  0
    4.6464  -51.4409  -24.3939 C   0  0  0  0  0  0  0  0  0  0  0  0
    4.8610  -53.0015  -23.6226 Cl  0  0  0  0  0  0  0  0  0  0  0  0
    4.0717  -47.7215  -26.3425 C   0  0  0  0  0  0  0  0  0  0  0  0
    3.0130  -47.0631  -25.9210 O   0  0  0  0  0  0  0  0  0  0  0  0
    4.7474  -47.0924  -27.3663 N   0  0  0  0  0  0  0  0  0  0  0  0
    5.9548  -47.4397  -28.0263 C   0  0  0  0  0  0  0  0  0  0  0  0
    5.7060  -47.7876  -29.4850 C   0  0  0  0  0  0  0  0  0  0  0  0
    4.8014  -46.7470  -30.1218 C   0  0  0  0  0  0  0  0  0  0  0  0
    3.6031  -46.3914  -29.3034 C   0  0  0  0  0  0  0  0  0  0  0  0
    4.0778  -45.8604  -27.9481 C   0  0  0  0  0  0  0  0  0  0  0  0
    4.3149  -47.3226  -31.3605 N   0  0  0  0  0  0  0  0  0  0  0  0
    2.9965  -46.8512  -31.6866 C   0  0  0  0  0  0  0  0  0  0  0  0
    2.9500  -46.2337  -33.0720 C   0  0  0  0  0  0  0  0  0  0  0  0
    3.3638  -47.1460  -34.0950 N   0  0  0  0  0  0  0  0  0  0  0  0
    4.5554  -47.8623  -33.6564 C   0  0  0  0  0  0  0  0  0  0  0  0
    5.1857  -47.1337  -32.4775 C   0  0  0  0  0  0  0  0  0  0  0  0
    3.5951  -46.5773  -34.9490 H   0  0  0  0  0  0  0  0  0  0  0  0
 18 19  1  0  0  0
 19 20  1  0  0  0
 20 21  1  0  0  0
 21 22  1  0  0  0
 22 23  1  0  0  0
 22 12  1  0  0  0
 12 13  2  0  0  0
 13 14  1  0  0  0
 14 15  2  0  0  0
 15 16  1  0  0  0
 16 10  1  0  0  0
 10  3  1  0  0  0
  3  4  2  0  0  0
  4  5  1  0  0  0
  5  6  1  0  0  0
  5  7  2  0  0  0
  7  8  1  0  0  0
  8  9  2  0  0  0
  9  1  1  0  0  0
  1 24  1  0  0  0
 24 25  2  0  0  0
 25 26  1  0  0  0
 26 27  2  0  0  0
 27 28  1  0  0  0
 28 29  2  0  0  0
 29 30  1  0  0  0
 26 31  1  0  0  0
 31 32  2  0  0  0
 31 33  1  0  0  0
 33 34  1  0  0  0
 34 35  1  0  0  0
 35 36  1  0  0  0
 36 37  1  0  0  0
 37 38  1  0  0  0
 36 39  1  0  0  0
 39 40  1  0  0  0
 40 41  1  0  0  0
 41 42  1  0  0  0
 42 43  1  0  0  0
 43 44  1  0  0  0
 16 17  2  0  0  0
 23 19  1  0  0  0
 17 12  1  0  0  0
  9  3  1  0  0  0
 29 24  1  0  0  0
 38 33  1  0  0  0
 44 39  1  0  0  0
 10 11  1  0  0  0
  1  2  1  0  0  0
 42 45  1  0  0  0
M  END
> <minimizedAffinity>
-8.33625

> <CNNscore>
0.1141025349

> <CNNaffinity>
6.9939026833

> <CNN_VS>
0.7980220318

> <CNNaffinity_variance>
0.5368609428

$$$$
[H]c1nc(N([H])c2c([H])c(Cl)c([H])c([H])c2N([H])c2c([H])c(C(=O)N3C([H])([H])C([H])([H])C([H])(N4C([H])([H])C([H])([H])N([H])C([H])([H])C4([H])[H])C([H])([H])C3([H])[H])c([H])c([H])c2Cl)nc(N2C([H])([H])N(C([H])([H])[H])C([H])([H])C2([H])[H])c1[H]


 45 50  0  0  0  0  0  0  0  0999 V2000
    2.6585  -52.1942  -24.3243 N   0  0  0  0  0  0  0  0  0  0  0  0
    2.4947  -52.9353  -23.5710 H   0  0  0  0  0  0  0  0  0  0  0  0
    0.5605  -52.1813  -25.6194 C   0  0  0  0  0  0  0  0  0  0  0  0
   -0.0444  -52.3178  -26.8421 C   0  0  0  0  0  0  0  0  0  0  0  0
    0.6525  -52.6794  -27.9965 C   0  0  0  0  0  0  0  0  0  0  0  0
   -0.2068  -52.8343  -29.5342 Cl  0  0  0  0  0  0  0  0  0  0  0  0
    1.9878  -52.9051  -27.9011 C   0  0  0  0  0  0  0  0  0  0  0  0
    2.6058  -52.7662  -26.6596 C   0  0  0  0  0  0  0  0  0  0  0  0
    1.9541  -52.4156  -25.5152 C   0  0  0  0  0  0  0  0  0  0  0  0
   -0.1307  -51.8713  -24.4278 N   0  0  0  0  0  0  0  0  0  0  0  0
   -0.8094  -51.0354  -24.4362 H   0  0  0  0  0  0  0  0  0  0  0  0
    0.7268  -52.6661  -20.9273 C   0  0  0  0  0  0  0  0  0  0  0  0
    0.0967  -53.8760  -20.7880 C   0  0  0  0  0  0  0  0  0  0  0  0
   -0.5911  -54.3638  -21.8761 C   0  0  0  0  0  0  0  0  0  0  0  0
   -0.6612  -53.7149  -23.0271 N   0  0  0  0  0  0  0  0  0  0  0  0
   -0.0364  -52.5076  -23.1770 C   0  0  0  0  0  0  0  0  0  0  0  0
    0.6186  -52.0553  -22.1222 N   0  0  0  0  0  0  0  0  0  0  0  0
    1.1477  -49.2755  -19.0928 C   0  0  0  0  0  0  0  0  0  0  0  0
    1.7432  -50.3953  -18.3950 N   0  0  0  0  0  0  0  0  0  0  0  0
    3.0316  -50.7345  -18.9045 C   0  0  0  0  0  0  0  0  0  0  0  0
    2.9123  -51.9563  -19.7521 C   0  0  0  0  0  0  0  0  0  0  0  0
    1.4509  -52.1042  -19.8557 N   0  0  0  0  0  0  0  0  0  0  0  0
    0.9227  -51.5600  -18.6371 C   0  0  0  0  0  0  0  0  0  0  0  0
    3.5249  -51.1464  -23.9627 C   0  0  0  0  0  0  0  0  0  0  0  0
    3.1978  -49.8188  -23.9265 C   0  0  0  0  0  0  0  0  0  0  0  0
    4.0869  -48.7752  -23.6250 C   0  0  0  0  0  0  0  0  0  0  0  0
    5.3811  -49.1392  -23.3515 C   0  0  0  0  0  0  0  0  0  0  0  0
    5.7610  -50.4842  -23.3775 C   0  0  0  0  0  0  0  0  0  0  0  0
    4.8573  -51.4696  -23.6756 C   0  0  0  0  0  0  0  0  0  0  0  0
    5.3237  -53.1601  -23.7041 Cl  0  0  0  0  0  0  0  0  0  0  0  0
    3.6435  -47.4091  -23.6761 C   0  0  0  0  0  0  0  0  0  0  0  0
    2.5661  -47.1986  -22.9503 O   0  0  0  0  0  0  0  0  0  0  0  0
    4.1088  -46.2831  -24.3213 N   0  0  0  0  0  0  0  0  0  0  0  0
    5.2650  -46.0884  -25.1208 C   0  0  0  0  0  0  0  0  0  0  0  0
    4.8938  -45.7779  -26.5618 C   0  0  0  0  0  0  0  0  0  0  0  0
    3.7954  -44.7298  -26.6025 C   0  0  0  0  0  0  0  0  0  0  0  0
    2.6655  -44.9871  -25.6594 C   0  0  0  0  0  0  0  0  0  0  0  0
    3.2239  -45.0526  -24.2353 C   0  0  0  0  0  0  0  0  0  0  0  0
    3.2448  -44.7579  -27.9436 N   0  0  0  0  0  0  0  0  0  0  0  0
    4.2572  -44.5408  -28.9410 C   0  0  0  0  0  0  0  0  0  0  0  0
    4.2872  -45.6637  -29.9613 C   0  0  0  0  0  0  0  0  0  0  0  0
    3.0319  -45.8340  -30.6287 N   0  0  0  0  0  0  0  0  0  0  0  0
    1.9488  -45.7629  -29.6555 C   0  0  0  0  0  0  0  0  0  0  0  0
    2.5094  -45.9436  -28.2516 C   0  0  0  0  0  0  0  0  0  0  0  0
    3.0383  -46.7877  -31.0722 H   0  0  0  0  0  0  0  0  0  0  0  0
 18 19  1  0  0  0
 19 20  1  0  0  0
 20 21  1  0  0  0
 21 22  1  0  0  0
 22 23  1  0  0  0
 22 12  1  0  0  0
 12 13  2  0  0  0
 13 14  1  0  0  0
 14 15  2  0  0  0
 15 16  1  0  0  0
 16 10  1  0  0  0
 10  3  1  0  0  0
  3  4  2  0  0  0
  4  5  1  0  0  0
  5  6  1  0  0  0
  5  7  2  0  0  0
  7  8  1  0  0  0
  8  9  2  0  0  0
  9  1  1  0  0  0
  1 24  1  0  0  0
 24 25  2  0  0  0
 25 26  1  0  0  0
 26 27  2  0  0  0
 27 28  1  0  0  0
 28 29  2  0  0  0
 29 30  1  0  0  0
 26 31  1  0  0  0
 31 32  2  0  0  0
 31 33  1  0  0  0
 33 34  1  0  0  0
 34 35  1  0  0  0
 35 36  1  0  0  0
 36 37  1  0  0  0
 37 38  1  0  0  0
 36 39  1  0  0  0
 39 40  1  0  0  0
 40 41  1  0  0  0
 41 42  1  0  0  0
 42 43  1  0  0  0
 43 44  1  0  0  0
 16 17  2  0  0  0
 23 19  1  0  0  0
 17 12  1  0  0  0
  9  3  1  0  0  0
 29 24  1  0  0  0
 38 33  1  0  0  0
 44 39  1  0  0  0
 10 11  1  0  0  0
  1  2  1  0  0  0
 42 45  1  0  0  0
M  END
> <minimizedAffinity>
-8.88962

> <CNNscore>
0.1083211079

> <CNNaffinity>
7.2266054153

> <CNN_VS>
0.7827938795

> <CNNaffinity_variance>
0.3548488617

$$$$
[H]c1nc(N([H])c2c([H])c(Cl)c([H])c([H])c2N([H])c2c([H])c(C(=O)N3C([H])([H])C([H])([H])C([H])(N4C([H])([H])C([H])([H])N([H])C([H])([H])C4([H])[H])C([H])([H])C3([H])[H])c([H])c([H])c2Cl)nc(N2C([H])([H])N(C([H])([H])[H])C([H])([H])C2([H])[H])c1[H]


 45 50  0  0  0  0  0  0  0  0999 V2000
   -0.4428  -52.1470  -23.6394 N   0  0  0  0  0  0  0  0  0  0  0  0
   -1.2040  -51.3965  -23.6672 H   0  0  0  0  0  0  0  0  0  0  0  0
    1.4225  -52.7751  -25.1245 C   0  0  0  0  0  0  0  0  0  0  0  0
    1.8167  -53.2374  -26.3535 C   0  0  0  0  0  0  0  0  0  0  0  0
    0.9213  -53.4694  -27.3991 C   0  0  0  0  0  0  0  0  0  0  0  0
    1.5155  -54.0657  -28.9542 Cl  0  0  0  0  0  0  0  0  0  0  0  0
   -0.3972  -53.2256  -27.1867 C   0  0  0  0  0  0  0  0  0  0  0  0
   -0.8013  -52.7564  -25.9381 C   0  0  0  0  0  0  0  0  0  0  0  0
    0.0472  -52.5195  -24.8983 C   0  0  0  0  0  0  0  0  0  0  0  0
    2.3138  -52.4800  -24.0698 N   0  0  0  0  0  0  0  0  0  0  0  0
    2.0189  -52.7388  -23.0672 H   0  0  0  0  0  0  0  0  0  0  0  0
    5.0105  -50.0512  -24.7402 C   0  0  0  0  0  0  0  0  0  0  0  0
    6.0906  -50.7420  -24.2541 C   0  0  0  0  0  0  0  0  0  0  0  0
    5.8595  -51.9891  -23.7189 C   0  0  0  0  0  0  0  0  0  0  0  0
    4.6531  -52.5297  -23.6607 N   0  0  0  0  0  0  0  0  0  0  0  0
    3.5690  -51.8495  -24.1427 C   0  0  0  0  0  0  0  0  0  0  0  0
    3.8100  -50.6544  -24.6523 N   0  0  0  0  0  0  0  0  0  0  0  0
    4.0774  -48.0898  -27.9528 C   0  0  0  0  0  0  0  0  0  0  0  0
    4.5772  -47.2535  -26.8821 N   0  0  0  0  0  0  0  0  0  0  0  0
    6.0018  -47.2479  -26.8123 C   0  0  0  0  0  0  0  0  0  0  0  0
    6.4358  -48.1150  -25.6786 C   0  0  0  0  0  0  0  0  0  0  0  0
    5.1708  -48.7684  -25.3034 N   0  0  0  0  0  0  0  0  0  0  0  0
    4.1398  -47.8241  -25.6285 C   0  0  0  0  0  0  0  0  0  0  0  0
   -0.0774  -52.5897  -22.3550 C   0  0  0  0  0  0  0  0  0  0  0  0
    0.7376  -51.9207  -21.4837 C   0  0  0  0  0  0  0  0  0  0  0  0
    1.1465  -52.4001  -20.2293 C   0  0  0  0  0  0  0  0  0  0  0  0
    0.6823  -53.6406  -19.8718 C   0  0  0  0  0  0  0  0  0  0  0  0
   -0.1525  -54.3611  -20.7309 C   0  0  0  0  0  0  0  0  0  0  0  0
   -0.5271  -53.8518  -21.9461 C   0  0  0  0  0  0  0  0  0  0  0  0
   -1.5794  -54.7460  -23.0275 Cl  0  0  0  0  0  0  0  0  0  0  0  0
    2.0556  -51.6331  -19.4226 C   0  0  0  0  0  0  0  0  0  0  0  0
    3.2874  -52.0938  -19.4702 O   0  0  0  0  0  0  0  0  0  0  0  0
    1.9067  -50.5244  -18.6170 N   0  0  0  0  0  0  0  0  0  0  0  0
    0.7724  -49.7078  -18.3702 C   0  0  0  0  0  0  0  0  0  0  0  0
    0.3145  -49.8214  -16.9252 C   0  0  0  0  0  0  0  0  0  0  0  0
    1.5069  -49.7129  -15.9908 C   0  0  0  0  0  0  0  0  0  0  0  0
    2.6787  -50.5492  -16.3906 C   0  0  0  0  0  0  0  0  0  0  0  0
    3.1208  -50.1300  -17.7953 C   0  0  0  0  0  0  0  0  0  0  0  0
    1.0642  -50.1924  -14.6960 N   0  0  0  0  0  0  0  0  0  0  0  0
    0.4799  -51.5031  -14.7834 C   0  0  0  0  0  0  0  0  0  0  0  0
    1.1603  -52.4826  -13.8451 C   0  0  0  0  0  0  0  0  0  0  0  0
    1.1087  -52.0607  -12.4778 N   0  0  0  0  0  0  0  0  0  0  0  0
    1.4170  -50.6383  -12.3945 C   0  0  0  0  0  0  0  0  0  0  0  0
    2.0769  -50.1810  -13.6881 C   0  0  0  0  0  0  0  0  0  0  0  0
    1.8391  -52.6058  -11.9526 H   0  0  0  0  0  0  0  0  0  0  0  0
 18 19  1  0  0  0
 19 20  1  0  0  0
 20 21  1  0  0  0
 21 22  1  0  0  0
 22 23  1  0  0  0
 22 12  1  0  0  0
 12 13  2  0  0  0
 13 14  1  0  0  0
 14 15  2  0  0  0
 15 16  1  0  0  0
 16 10  1  0  0  0
 10  3  1  0  0  0
  3  4  2  0  0  0
  4  5  1  0  0  0
  5  6  1  0  0  0
  5  7  2  0  0  0
  7  8  1  0  0  0
  8  9  2  0  0  0
  9  1  1  0  0  0
  1 24  1  0  0  0
 24 25  2  0  0  0
 25 26  1  0  0  0
 26 27  2  0  0  0
 27 28  1  0  0  0
 28 29  2  0  0  0
 29 30  1  0  0  0
 26 31  1  0  0  0
 31 32  2  0  0  0
 31 33  1  0  0  0
 33 34  1  0  0  0
 34 35  1  0  0  0
 35 36  1  0  0  0
 36 37  1  0  0  0
 37 38  1  0  0  0
 36 39  1  0  0  0
 39 40  1  0  0  0
 40 41  1  0  0  0
 41 42  1  0  0  0
 42 43  1  0  0  0
 43 44  1  0  0  0
 16 17  2  0  0  0
 23 19  1  0  0  0
 17 12  1  0  0  0
  9  3  1  0  0  0
 29 24  1  0  0  0
 38 33  1  0  0  0
 44 39  1  0  0  0
 10 11  1  0  0  0
  1  2  1  0  0  0
 42 45  1  0  0  0
M  END
> <minimizedAffinity>
-8.71467

> <CNNscore>
0.0866704285

> <CNNaffinity>
6.9536466599

> <CNN_VS>
0.6026755571

> <CNNaffinity_variance>
0.5576332211

$$$$
[H]c1nc(N([H])c2c([H])c(Cl)c([H])c([H])c2N([H])c2c([H])c(C(=O)N3C([H])([H])C([H])([H])C([H])(N4C([H])([H])C([H])([H])N([H])C([H])([H])C4([H])[H])C([H])([H])C3([H])[H])c([H])c([H])c2Cl)nc(N2C([H])([H])N(C([H])([H])[H])C([H])([H])C2([H])[H])c1[H]


 45 50  0  0  0  0  0  0  0  0999 V2000
    0.3278  -50.5385  -19.9288 N   0  0  0  0  0  0  0  0  0  0  0  0
   -0.3336  -49.7019  -20.0070 H   0  0  0  0  0  0  0  0  0  0  0  0
    0.4564  -51.8082  -22.0384 C   0  0  0  0  0  0  0  0  0  0  0  0
    0.1453  -52.9584  -22.7165 C   0  0  0  0  0  0  0  0  0  0  0  0
   -0.6372  -53.9750  -22.1659 C   0  0  0  0  0  0  0  0  0  0  0  0
   -0.9915  -55.4266  -23.1114 Cl  0  0  0  0  0  0  0  0  0  0  0  0
   -1.1094  -53.8147  -20.9032 C   0  0  0  0  0  0  0  0  0  0  0  0
   -0.7942  -52.6470  -20.2109 C   0  0  0  0  0  0  0  0  0  0  0  0
   -0.0342  -51.6368  -20.7202 C   0  0  0  0  0  0  0  0  0  0  0  0
    1.1985  -50.7422  -22.5925 N   0  0  0  0  0  0  0  0  0  0  0  0
    1.3917  -49.8818  -21.9747 H   0  0  0  0  0  0  0  0  0  0  0  0
    1.9242  -51.3118  -26.1659 C   0  0  0  0  0  0  0  0  0  0  0  0
    2.8432  -50.3195  -26.3918 C   0  0  0  0  0  0  0  0  0  0  0  0
    3.1705  -49.5028  -25.3330 C   0  0  0  0  0  0  0  0  0  0  0  0
    2.6370  -49.6432  -24.1303 N   0  0  0  0  0  0  0  0  0  0  0  0
    1.7196  -50.6295  -23.8940 C   0  0  0  0  0  0  0  0  0  0  0  0
    1.4178  -51.4032  -24.9218 N   0  0  0  0  0  0  0  0  0  0  0  0
    0.0854  -54.6899  -26.6614 C   0  0  0  0  0  0  0  0  0  0  0  0
    0.3015  -53.9565  -27.8906 N   0  0  0  0  0  0  0  0  0  0  0  0
    1.6164  -54.1391  -28.4123 C   0  0  0  0  0  0  0  0  0  0  0  0
    2.4288  -52.9230  -28.1179 C   0  0  0  0  0  0  0  0  0  0  0  0
    1.5405  -52.1870  -27.2028 N   0  0  0  0  0  0  0  0  0  0  0  0
    0.2063  -52.5459  -27.5916 C   0  0  0  0  0  0  0  0  0  0  0  0
    1.4279  -50.3609  -19.0700 C   0  0  0  0  0  0  0  0  0  0  0  0
    2.6181  -49.7791  -19.4101 C   0  0  0  0  0  0  0  0  0  0  0  0
    3.7320  -49.6630  -18.5637 C   0  0  0  0  0  0  0  0  0  0  0  0
    3.5937  -50.1840  -17.3020 C   0  0  0  0  0  0  0  0  0  0  0  0
    2.3956  -50.7886  -16.9109 C   0  0  0  0  0  0  0  0  0  0  0  0
    1.3335  -50.8776  -17.7714 C   0  0  0  0  0  0  0  0  0  0  0  0
   -0.1757  -51.6286  -17.2870 Cl  0  0  0  0  0  0  0  0  0  0  0  0
    4.9539  -49.0841  -19.0507 C   0  0  0  0  0  0  0  0  0  0  0  0
    5.3218  -48.0242  -18.3628 O   0  0  0  0  0  0  0  0  0  0  0  0
    5.8135  -49.4061  -20.0793 N   0  0  0  0  0  0  0  0  0  0  0  0
    5.8038  -50.5007  -20.9824 C   0  0  0  0  0  0  0  0  0  0  0  0
    5.5576  -50.0371  -22.4090 C   0  0  0  0  0  0  0  0  0  0  0  0
    6.4356  -48.8392  -22.7263 C   0  0  0  0  0  0  0  0  0  0  0  0
    6.4396  -47.7833  -21.6692 C   0  0  0  0  0  0  0  0  0  0  0  0
    6.9229  -48.4078  -20.3575 C   0  0  0  0  0  0  0  0  0  0  0  0
    5.8948  -48.2354  -23.9285 N   0  0  0  0  0  0  0  0  0  0  0  0
    5.4411  -46.8916  -23.6934 C   0  0  0  0  0  0  0  0  0  0  0  0
    6.0958  -45.9058  -24.6435 C   0  0  0  0  0  0  0  0  0  0  0  0
    5.8550  -46.2245  -26.0184 N   0  0  0  0  0  0  0  0  0  0  0  0
    6.0261  -47.6575  -26.2240 C   0  0  0  0  0  0  0  0  0  0  0  0
    6.7837  -48.2566  -25.0470 C   0  0  0  0  0  0  0  0  0  0  0  0
    6.5671  -45.7039  -26.5914 H   0  0  0  0  0  0  0  0  0  0  0  0
 18 19  1  0  0  0
 19 20  1  0  0  0
 20 21  1  0  0  0
 21 22  1  0  0  0
 22 23  1  0  0  0
 22 12  1  0  0  0
 12 13  2  0  0  0
 13 14  1  0  0  0
 14 15  2  0  0  0
 15 16  1  0  0  0
 16 10  1  0  0  0
 10  3  1  0  0  0
  3  4  2  0  0  0
  4  5  1  0  0  0
  5  6  1  0  0  0
  5  7  2  0  0  0
  7  8  1  0  0  0
  8  9  2  0  0  0
  9  1  1  0  0  0
  1 24  1  0  0  0
 24 25  2  0  0  0
 25 26  1  0  0  0
 26 27  2  0  0  0
 27 28  1  0  0  0
 28 29  2  0  0  0
 29 30  1  0  0  0
 26 31  1  0  0  0
 31 32  2  0  0  0
 31 33  1  0  0  0
 33 34  1  0  0  0
 34 35  1  0  0  0
 35 36  1  0  0  0
 36 37  1  0  0  0
 37 38  1  0  0  0
 36 39  1  0  0  0
 39 40  1  0  0  0
 40 41  1  0  0  0
 41 42  1  0  0  0
 42 43  1  0  0  0
 43 44  1  0  0  0
 16 17  2  0  0  0
 23 19  1  0  0  0
 17 12  1  0  0  0
  9  3  1  0  0  0
 29 24  1  0  0  0
 38 33  1  0  0  0
 44 39  1  0  0  0
 10 11  1  0  0  0
  1  2  1  0  0  0
 42 45  1  0  0  0
M  END
> <minimizedAffinity>
-8.09486

> <CNNscore>
0.0835623071

> <CNNaffinity>
6.8704729080

> <CNN_VS>
0.5741125941

> <CNNaffinity_variance>
0.8562709093

$$$$
[H]N=C(N([H])[H])N([H])C([H])([H])C([H])([H])C([H])([H])[C@@]1([H])C(=O)N([H])[C@]([H])(C([H])([H])c2c([H])c([H])c([H])c([H])c2[H])C(=O)N([H])[C@@]([H])(C([H])([H])c2c([H])c([H])c([H])c([H])c2[H])C(=O)N([H])[C@]([H])(C([H])([H])c2c([H])c([H])c([H])c([H])c2[H])C(=O)N2C([H])([H])C([H])([H])C([H])([H])[C@@]2([H])C(=O)N([H])[C@@]([H])(C([H])([H])c2c([H])c([H])c([H])c([H])c2[H])C(=O)N([H])[C@@]([H])(C([H])([H])c2c([H])c([H])c([H])c([H])c2[H])C(=O)N1[H]


 83 89  0  0  0  0  0  0  0  0999 V2000
   -0.5459  -51.6651  -20.3677 C   0  0  0  0  0  0  0  0  0  0  0  0
   -0.3295  -52.2782  -19.0617 N   0  0  0  0  0  0  0  0  0  0  0  0
    0.6444  -52.1972  -18.1109 C   0  0  0  0  0  0  0  0  0  0  0  0
    1.4311  -53.2358  -18.0100 O   0  0  0  0  0  0  0  0  0  0  0  0
    1.0484  -51.1799  -17.1191 C   0  0  0  0  0  0  0  0  0  0  0  0
    0.4508  -49.9120  -17.1843 N   0  0  0  0  0  0  0  0  0  0  0  0
    1.0903  -48.6786  -17.1596 C   0  0  0  0  0  0  0  0  0  0  0  0
    0.4205  -47.6162  -16.9422 O   0  0  0  0  0  0  0  0  0  0  0  0
    2.5645  -48.4282  -17.3699 C   0  0  0  0  0  0  0  0  0  0  0  0
    2.7450  -47.1539  -18.0358 N   0  0  0  0  0  0  0  0  0  0  0  0
    3.7478  -46.8036  -18.9779 C   0  0  0  0  0  0  0  0  0  0  0  0
    3.2969  -46.2096  -20.0047 O   0  0  0  0  0  0  0  0  0  0  0  0
    5.1489  -47.0509  -18.8625 C   0  0  0  0  0  0  0  0  0  0  0  0
    6.0638  -45.8144  -19.0177 C   0  0  0  0  0  0  0  0  0  0  0  0
    7.4193  -46.5416  -18.9039 C   0  0  0  0  0  0  0  0  0  0  0  0
    7.1062  -48.0241  -18.9984 C   0  0  0  0  0  0  0  0  0  0  0  0
    5.8439  -47.8885  -19.8040 N   0  0  0  0  0  0  0  0  0  0  0  0
    5.4806  -48.4004  -21.0395 C   0  0  0  0  0  0  0  0  0  0  0  0
    5.3064  -49.6372  -21.1115 O   0  0  0  0  0  0  0  0  0  0  0  0
    5.2667  -47.6474  -22.3427 C   0  0  0  0  0  0  0  0  0  0  0  0
    4.1162  -48.1456  -22.9782 N   0  0  0  0  0  0  0  0  0  0  0  0
    3.7083  -48.8269  -24.0964 C   0  0  0  0  0  0  0  0  0  0  0  0
    3.1679  -48.1285  -25.0599 O   0  0  0  0  0  0  0  0  0  0  0  0
    3.7378  -50.2752  -24.4841 C   0  0  0  0  0  0  0  0  0  0  0  0
    2.4122  -50.8671  -24.2266 N   0  0  0  0  0  0  0  0  0  0  0  0
    2.0113  -51.9098  -23.4260 C   0  0  0  0  0  0  0  0  0  0  0  0
    1.4446  -52.9072  -24.0296 O   0  0  0  0  0  0  0  0  0  0  0  0
    2.1198  -52.0806  -21.9568 C   0  0  0  0  0  0  0  0  0  0  0  0
    1.7518  -50.9193  -21.1968 N   0  0  0  0  0  0  0  0  0  0  0  0
    0.4329  -50.6517  -20.7190 C   0  0  0  0  0  0  0  0  0  0  0  0
    0.1158  -49.4483  -20.6000 O   0  0  0  0  0  0  0  0  0  0  0  0
   -1.1399  -52.9613  -18.8498 H   0  0  0  0  0  0  0  0  0  0  0  0
   -0.6126  -49.8899  -17.2617 H   0  0  0  0  0  0  0  0  0  0  0  0
    2.0156  -46.4229  -17.7548 H   0  0  0  0  0  0  0  0  0  0  0  0
    3.2299  -47.8600  -22.3463 H   0  0  0  0  0  0  0  0  0  0  0  0
    1.6553  -50.3565  -24.7987 H   0  0  0  0  0  0  0  0  0  0  0  0
    2.4957  -50.2390  -20.9836 H   0  0  0  0  0  0  0  0  0  0  0  0
   -1.9898  -51.2266  -20.3623 C   0  0  0  0  0  0  0  0  0  0  0  0
   -2.8651  -52.3202  -20.8926 C   0  0  0  0  0  0  0  0  0  0  0  0
   -2.1598  -53.6633  -20.7428 C   0  0  0  0  0  0  0  0  0  0  0  0
   -2.2204  -54.3448  -22.0091 N   0  0  0  0  0  0  0  0  0  0  0  0
   -3.1317  -54.5399  -22.4437 H   0  0  0  0  0  0  0  0  0  0  0  0
   -1.1481  -55.0535  -24.0551 N   0  0  0  0  0  0  0  0  0  0  0  0
   -0.9849  -54.7471  -22.6455 C   0  0  0  0  0  0  0  0  0  0  0  0
    0.0536  -54.8150  -22.0517 N   0  0  0  0  0  0  0  0  0  0  0  0
   -0.4625  -54.6725  -24.7029 H   0  0  0  0  0  0  0  0  0  0  0  0
   -1.9456  -55.6359  -24.3198 H   0  0  0  0  0  0  0  0  0  0  0  0
    0.7611  -54.7981  -21.3860 H   0  0  0  0  0  0  0  0  0  0  0  0
    0.8170  -51.7258  -15.6905 C   0  0  0  0  0  0  0  0  0  0  0  0
    1.9284  -51.2899  -14.7779 C   0  0  0  0  0  0  0  0  0  0  0  0
    1.7013  -50.4646  -13.7131 C   0  0  0  0  0  0  0  0  0  0  0  0
    2.7334  -50.0730  -12.8976 C   0  0  0  0  0  0  0  0  0  0  0  0
    4.0214  -50.5201  -13.1570 C   0  0  0  0  0  0  0  0  0  0  0  0
    4.2671  -51.3538  -14.2278 C   0  0  0  0  0  0  0  0  0  0  0  0
    3.2105  -51.7250  -15.0221 C   0  0  0  0  0  0  0  0  0  0  0  0
    3.2118  -48.4854  -16.0320 C   0  0  0  0  0  0  0  0  0  0  0  0
    3.5736  -47.1901  -15.4255 C   0  0  0  0  0  0  0  0  0  0  0  0
    4.8805  -46.7393  -15.4390 C   0  0  0  0  0  0  0  0  0  0  0  0
    5.2527  -45.5445  -14.8656 C   0  0  0  0  0  0  0  0  0  0  0  0
    4.3161  -44.7442  -14.2483 C   0  0  0  0  0  0  0  0  0  0  0  0
    3.0085  -45.1702  -14.2221 C   0  0  0  0  0  0  0  0  0  0  0  0
    2.6557  -46.3825  -14.8080 C   0  0  0  0  0  0  0  0  0  0  0  0
    6.5974  -47.6389  -22.9825 C   0  0  0  0  0  0  0  0  0  0  0  0
    7.1184  -46.3460  -23.4566 C   0  0  0  0  0  0  0  0  0  0  0  0
    7.2379  -46.0310  -24.7775 C   0  0  0  0  0  0  0  0  0  0  0  0
    7.7051  -44.8145  -25.2067 C   0  0  0  0  0  0  0  0  0  0  0  0
    8.0722  -43.8655  -24.2960 C   0  0  0  0  0  0  0  0  0  0  0  0
    7.9530  -44.1820  -22.9538 C   0  0  0  0  0  0  0  0  0  0  0  0
    7.4873  -45.3921  -22.5203 C   0  0  0  0  0  0  0  0  0  0  0  0
    3.9556  -50.2836  -26.0105 C   0  0  0  0  0  0  0  0  0  0  0  0
    3.0796  -51.1666  -26.7592 C   0  0  0  0  0  0  0  0  0  0  0  0
    1.7009  -50.9368  -26.7197 C   0  0  0  0  0  0  0  0  0  0  0  0
    0.8051  -51.7391  -27.3766 C   0  0  0  0  0  0  0  0  0  0  0  0
    1.2418  -52.8166  -28.1088 C   0  0  0  0  0  0  0  0  0  0  0  0
    2.6082  -53.0533  -28.1535 C   0  0  0  0  0  0  0  0  0  0  0  0
    3.5035  -52.2355  -27.4861 C   0  0  0  0  0  0  0  0  0  0  0  0
    3.4110  -52.7228  -21.6122 C   0  0  0  0  0  0  0  0  0  0  0  0
    4.3533  -52.6322  -22.7542 C   0  0  0  0  0  0  0  0  0  0  0  0
    4.2983  -53.3592  -23.8956 C   0  0  0  0  0  0  0  0  0  0  0  0
    5.2255  -53.2060  -24.9121 C   0  0  0  0  0  0  0  0  0  0  0  0
    6.2398  -52.2891  -24.7713 C   0  0  0  0  0  0  0  0  0  0  0  0
    6.3404  -51.5187  -23.6207 C   0  0  0  0  0  0  0  0  0  0  0  0
    5.3939  -51.7059  -22.6339 C   0  0  0  0  0  0  0  0  0  0  0  0
 43 44  1  0  0  0
 44 45  2  0  0  0
 44 41  1  0  0  0
 41 40  1  0  0  0
 40 39  1  0  0  0
 39 38  1  0  0  0
 38  1  1  0  0  0
  1  2  1  0  0  0
  2  3  1  0  0  0
  3  4  2  0  0  0
  3  5  1  0  0  0
  5 49  1  0  0  0
 49 50  1  0  0  0
 50 51  2  0  0  0
 51 52  1  0  0  0
 52 53  2  0  0  0
 53 54  1  0  0  0
 54 55  2  0  0  0
  5  6  1  0  0  0
  6  7  1  0  0  0
  7  8  2  0  0  0
  7  9  1  0  0  0
  9 56  1  0  0  0
 56 57  1  0  0  0
 57 58  2  0  0  0
 58 59  1  0  0  0
 59 60  2  0  0  0
 60 61  1  0  0  0
 61 62  2  0  0  0
  9 10  1  0  0  0
 10 11  1  0  0  0
 11 12  2  0  0  0
 11 13  1  0  0  0
 13 14  1  0  0  0
 14 15  1  0  0  0
 15 16  1  0  0  0
 16 17  1  0  0  0
 17 18  1  0  0  0
 18 19  2  0  0  0
 18 20  1  0  0  0
 20 63  1  0  0  0
 63 64  1  0  0  0
 64 65  2  0  0  0
 65 66  1  0  0  0
 66 67  2  0  0  0
 67 68  1  0  0  0
 68 69  2  0  0  0
 20 21  1  0  0  0
 21 22  1  0  0  0
 22 23  2  0  0  0
 22 24  1  0  0  0
 24 70  1  0  0  0
 70 71  1  0  0  0
 71 72  2  0  0  0
 72 73  1  0  0  0
 73 74  2  0  0  0
 74 75  1  0  0  0
 75 76  2  0  0  0
 24 25  1  0  0  0
 25 26  1  0  0  0
 26 27  2  0  0  0
 26 28  1  0  0  0
 28 77  1  0  0  0
 77 78  1  0  0  0
 78 79  2  0  0  0
 79 80  1  0  0  0
 80 81  2  0  0  0
 81 82  1  0  0  0
 82 83  2  0  0  0
 28 29  1  0  0  0
 29 30  1  0  0  0
 30 31  2  0  0  0
 30  1  1  0  0  0
 55 50  1  0  0  0
 62 57  1  0  0  0
 17 13  1  0  0  0
 69 64  1  0  0  0
 76 71  1  0  0  0
 83 78  1  0  0  0
 43 46  1  0  0  0
 43 47  1  0  0  0
 45 48  1  0  0  0
 41 42  1  0  0  0
  2 32  1  0  0  0
  6 33  1  0  0  0
 10 34  1  0  0  0
 21 35  1  0  0  0
 25 36  1  0  0  0
 29 37  1  0  0  0
M  END
> <minimizedAffinity>
1.68436

> <CNNscore>
0.3996268511

> <CNNaffinity>
8.1328754425

> <CNN_VS>
3.2501153946

> <CNNaffinity_variance>
1.5101006031

$$$$
[H]N=C(N([H])[H])N([H])C([H])([H])C([H])([H])C([H])([H])[C@@]1([H])C(=O)N([H])[C@]([H])(C([H])([H])c2c([H])c([H])c([H])c([H])c2[H])C(=O)N([H])[C@@]([H])(C([H])([H])c2c([H])c([H])c([H])c([H])c2[H])C(=O)N([H])[C@]([H])(C([H])([H])c2c([H])c([H])c([H])c([H])c2[H])C(=O)N2C([H])([H])C([H])([H])C([H])([H])[C@@]2([H])C(=O)N([H])[C@@]([H])(C([H])([H])c2c([H])c([H])c([H])c([H])c2[H])C(=O)N([H])[C@@]([H])(C([H])([H])c2c([H])c([H])c([H])c([H])c2[H])C(=O)N1[H]


 83 89  0  0  0  0  0  0  0  0999 V2000
    1.3995  -53.3613  -23.6776 C   0  0  0  0  0  0  0  0  0  0  0  0
    0.3071  -52.9024  -24.5286 N   0  0  0  0  0  0  0  0  0  0  0  0
   -0.1318  -51.6846  -24.9569 C   0  0  0  0  0  0  0  0  0  0  0  0
   -1.2360  -51.2510  -24.4088 O   0  0  0  0  0  0  0  0  0  0  0  0
    0.3530  -50.6883  -25.9337 C   0  0  0  0  0  0  0  0  0  0  0  0
    1.6237  -50.8737  -26.4993 N   0  0  0  0  0  0  0  0  0  0  0  0
    2.6406  -49.9332  -26.6093 C   0  0  0  0  0  0  0  0  0  0  0  0
    3.6267  -50.1469  -27.3882 O   0  0  0  0  0  0  0  0  0  0  0  0
    2.7256  -48.6143  -25.8789 C   0  0  0  0  0  0  0  0  0  0  0  0
    4.1144  -48.3072  -25.6020 N   0  0  0  0  0  0  0  0  0  0  0  0
    4.6427  -47.6296  -24.4717 C   0  0  0  0  0  0  0  0  0  0  0  0
    5.6461  -48.2085  -23.9537 O   0  0  0  0  0  0  0  0  0  0  0  0
    4.1603  -46.4106  -23.9068 C   0  0  0  0  0  0  0  0  0  0  0  0
    5.2073  -45.2844  -23.7470 C   0  0  0  0  0  0  0  0  0  0  0  0
    4.2954  -44.2471  -23.0603 C   0  0  0  0  0  0  0  0  0  0  0  0
    3.0287  -44.9926  -22.6800 C   0  0  0  0  0  0  0  0  0  0  0  0
    3.6531  -46.3552  -22.5612 N   0  0  0  0  0  0  0  0  0  0  0  0
    3.7159  -47.2504  -21.5052 C   0  0  0  0  0  0  0  0  0  0  0  0
    2.6434  -47.7923  -21.1570 O   0  0  0  0  0  0  0  0  0  0  0  0
    4.9343  -47.6652  -20.6962 C   0  0  0  0  0  0  0  0  0  0  0  0
    4.8991  -49.0555  -20.4916 N   0  0  0  0  0  0  0  0  0  0  0  0
    4.7694  -50.0001  -19.5059 C   0  0  0  0  0  0  0  0  0  0  0  0
    5.8573  -50.6070  -19.1105 O   0  0  0  0  0  0  0  0  0  0  0  0
    3.5944  -50.5293  -18.7391 C   0  0  0  0  0  0  0  0  0  0  0  0
    3.1578  -51.7992  -19.3478 N   0  0  0  0  0  0  0  0  0  0  0  0
    1.9617  -52.1896  -19.9008 C   0  0  0  0  0  0  0  0  0  0  0  0
    1.3708  -53.1933  -19.3318 O   0  0  0  0  0  0  0  0  0  0  0  0
    1.2260  -51.6422  -21.0664 C   0  0  0  0  0  0  0  0  0  0  0  0
    2.0481  -51.3725  -22.2122 N   0  0  0  0  0  0  0  0  0  0  0  0
    2.3088  -52.3101  -23.2575 C   0  0  0  0  0  0  0  0  0  0  0  0
    3.4074  -52.2009  -23.8439 O   0  0  0  0  0  0  0  0  0  0  0  0
   -0.2734  -53.7541  -24.8541 H   0  0  0  0  0  0  0  0  0  0  0  0
    1.8350  -51.8438  -26.8885 H   0  0  0  0  0  0  0  0  0  0  0  0
    4.7832  -48.6495  -26.3642 H   0  0  0  0  0  0  0  0  0  0  0  0
    5.0514  -49.5487  -21.4917 H   0  0  0  0  0  0  0  0  0  0  0  0
    3.9573  -52.5211  -19.3252 H   0  0  0  0  0  0  0  0  0  0  0  0
    2.4730  -50.4362  -22.2790 H   0  0  0  0  0  0  0  0  0  0  0  0
    2.0161  -54.5215  -24.4198 C   0  0  0  0  0  0  0  0  0  0  0  0
    1.5391  -54.5404  -25.8395 C   0  0  0  0  0  0  0  0  0  0  0  0
    0.0188  -54.6478  -25.8710 C   0  0  0  0  0  0  0  0  0  0  0  0
   -0.3308  -56.0434  -25.9119 N   0  0  0  0  0  0  0  0  0  0  0  0
   -0.0890  -56.6091  -26.7359 H   0  0  0  0  0  0  0  0  0  0  0  0
   -1.5315  -55.6251  -23.8572 N   0  0  0  0  0  0  0  0  0  0  0  0
   -1.0253  -56.6227  -24.7825 C   0  0  0  0  0  0  0  0  0  0  0  0
   -1.1562  -57.8056  -24.6440 N   0  0  0  0  0  0  0  0  0  0  0  0
   -2.4851  -55.7350  -23.5207 H   0  0  0  0  0  0  0  0  0  0  0  0
   -0.9004  -54.8647  -23.5951 H   0  0  0  0  0  0  0  0  0  0  0  0
   -1.1410  -58.7726  -24.7378 H   0  0  0  0  0  0  0  0  0  0  0  0
   -0.6573  -50.5681  -27.0987 C   0  0  0  0  0  0  0  0  0  0  0  0
   -0.5948  -51.7888  -27.9729 C   0  0  0  0  0  0  0  0  0  0  0  0
    0.5961  -52.3200  -28.3805 C   0  0  0  0  0  0  0  0  0  0  0  0
    0.6286  -53.4311  -29.1855 C   0  0  0  0  0  0  0  0  0  0  0  0
   -0.5605  -54.0216  -29.5897 C   0  0  0  0  0  0  0  0  0  0  0  0
   -1.7709  -53.4976  -29.1866 C   0  0  0  0  0  0  0  0  0  0  0  0
   -1.7652  -52.3854  -28.3815 C   0  0  0  0  0  0  0  0  0  0  0  0
    2.0619  -47.5969  -26.7372 C   0  0  0  0  0  0  0  0  0  0  0  0
    2.9512  -46.6396  -27.4222 C   0  0  0  0  0  0  0  0  0  0  0  0
    3.8033  -47.0558  -28.4282 C   0  0  0  0  0  0  0  0  0  0  0  0
    4.6580  -46.1909  -29.0734 C   0  0  0  0  0  0  0  0  0  0  0  0
    4.6915  -44.8566  -28.7305 C   0  0  0  0  0  0  0  0  0  0  0  0
    3.8526  -44.4173  -27.7328 C   0  0  0  0  0  0  0  0  0  0  0  0
    2.9974  -45.3106  -27.0940 C   0  0  0  0  0  0  0  0  0  0  0  0
    4.9855  -46.6917  -19.5872 C   0  0  0  0  0  0  0  0  0  0  0  0
    6.0778  -45.7046  -19.5956 C   0  0  0  0  0  0  0  0  0  0  0  0
    6.2366  -44.7620  -18.6237 C   0  0  0  0  0  0  0  0  0  0  0  0
    7.2712  -43.8609  -18.6316 C   0  0  0  0  0  0  0  0  0  0  0  0
    8.1904  -43.8873  -19.6411 C   0  0  0  0  0  0  0  0  0  0  0  0
    8.0321  -44.8426  -20.6302 C   0  0  0  0  0  0  0  0  0  0  0  0
    7.0037  -45.7435  -20.6271 C   0  0  0  0  0  0  0  0  0  0  0  0
    4.1393  -50.8571  -17.3344 C   0  0  0  0  0  0  0  0  0  0  0  0
    3.5834  -50.0665  -16.2511 C   0  0  0  0  0  0  0  0  0  0  0  0
    3.4758  -48.6823  -16.4165 C   0  0  0  0  0  0  0  0  0  0  0  0
    2.9869  -47.8625  -15.4332 C   0  0  0  0  0  0  0  0  0  0  0  0
    2.5797  -48.3851  -14.2295 C   0  0  0  0  0  0  0  0  0  0  0  0
    2.6834  -49.7578  -14.0556 C   0  0  0  0  0  0  0  0  0  0  0  0
    3.1783  -50.5757  -15.0565 C   0  0  0  0  0  0  0  0  0  0  0  0
    0.3126  -50.5588  -20.6296 C   0  0  0  0  0  0  0  0  0  0  0  0
    0.0172  -50.6855  -19.1817 C   0  0  0  0  0  0  0  0  0  0  0  0
   -0.5946  -51.7328  -18.5791 C   0  0  0  0  0  0  0  0  0  0  0  0
   -0.8295  -51.7638  -17.2152 C   0  0  0  0  0  0  0  0  0  0  0  0
   -0.4332  -50.7036  -16.4353 C   0  0  0  0  0  0  0  0  0  0  0  0
    0.1984  -49.6060  -17.0042 C   0  0  0  0  0  0  0  0  0  0  0  0
    0.4113  -49.6188  -18.3677 C   0  0  0  0  0  0  0  0  0  0  0  0
 43 44  1  0  0  0
 44 45  2  0  0  0
 44 41  1  0  0  0
 41 40  1  0  0  0
 40 39  1  0  0  0
 39 38  1  0  0  0
 38  1  1  0  0  0
  1  2  1  0  0  0
  2  3  1  0  0  0
  3  4  2  0  0  0
  3  5  1  0  0  0
  5 49  1  0  0  0
 49 50  1  0  0  0
 50 51  2  0  0  0
 51 52  1  0  0  0
 52 53  2  0  0  0
 53 54  1  0  0  0
 54 55  2  0  0  0
  5  6  1  0  0  0
  6  7  1  0  0  0
  7  8  2  0  0  0
  7  9  1  0  0  0
  9 56  1  0  0  0
 56 57  1  0  0  0
 57 58  2  0  0  0
 58 59  1  0  0  0
 59 60  2  0  0  0
 60 61  1  0  0  0
 61 62  2  0  0  0
  9 10  1  0  0  0
 10 11  1  0  0  0
 11 12  2  0  0  0
 11 13  1  0  0  0
 13 14  1  0  0  0
 14 15  1  0  0  0
 15 16  1  0  0  0
 16 17  1  0  0  0
 17 18  1  0  0  0
 18 19  2  0  0  0
 18 20  1  0  0  0
 20 63  1  0  0  0
 63 64  1  0  0  0
 64 65  2  0  0  0
 65 66  1  0  0  0
 66 67  2  0  0  0
 67 68  1  0  0  0
 68 69  2  0  0  0
 20 21  1  0  0  0
 21 22  1  0  0  0
 22 23  2  0  0  0
 22 24  1  0  0  0
 24 70  1  0  0  0
 70 71  1  0  0  0
 71 72  2  0  0  0
 72 73  1  0  0  0
 73 74  2  0  0  0
 74 75  1  0  0  0
 75 76  2  0  0  0
 24 25  1  0  0  0
 25 26  1  0  0  0
 26 27  2  0  0  0
 26 28  1  0  0  0
 28 77  1  0  0  0
 77 78  1  0  0  0
 78 79  2  0  0  0
 79 80  1  0  0  0
 80 81  2  0  0  0
 81 82  1  0  0  0
 82 83  2  0  0  0
 28 29  1  0  0  0
 29 30  1  0  0  0
 30 31  2  0  0  0
 30  1  1  0  0  0
 55 50  1  0  0  0
 62 57  1  0  0  0
 17 13  1  0  0  0
 69 64  1  0  0  0
 76 71  1  0  0  0
 83 78  1  0  0  0
 43 46  1  0  0  0
 43 47  1  0  0  0
 45 48  1  0  0  0
 41 42  1  0  0  0
  2 32  1  0  0  0
  6 33  1  0  0  0
 10 34  1  0  0  0
 21 35  1  0  0  0
 25 36  1  0  0  0
 29 37  1  0  0  0
M  END
> <minimizedAffinity>
1.21375

> <CNNscore>
0.3987033963

> <CNNaffinity>
8.3028249741

> <CNN_VS>
3.3103644848

> <CNNaffinity_variance>
1.3750786781

$$$$
[H]N=C(N([H])[H])N([H])C([H])([H])C([H])([H])C([H])([H])[C@@]1([H])C(=O)N([H])[C@]([H])(C([H])([H])c2c([H])c([H])c([H])c([H])c2[H])C(=O)N([H])[C@@]([H])(C([H])([H])c2c([H])c([H])c([H])c([H])c2[H])C(=O)N([H])[C@]([H])(C([H])([H])c2c([H])c([H])c([H])c([H])c2[H])C(=O)N2C([H])([H])C([H])([H])C([H])([H])[C@@]2([H])C(=O)N([H])[C@@]([H])(C([H])([H])c2c([H])c([H])c([H])c([H])c2[H])C(=O)N([H])[C@@]([H])(C([H])([H])c2c([H])c([H])c([H])c([H])c2[H])C(=O)N1[H]


 83 89  0  0  0  0  0  0  0  0999 V2000
    0.6840  -50.8558  -20.6881 C   0  0  0  0  0  0  0  0  0  0  0  0
    0.8919  -51.7119  -19.5253 N   0  0  0  0  0  0  0  0  0  0  0  0
    1.6994  -51.6635  -18.4276 C   0  0  0  0  0  0  0  0  0  0  0  0
    2.7001  -52.5037  -18.4180 O   0  0  0  0  0  0  0  0  0  0  0  0
    1.7234  -50.8605  -17.1881 C   0  0  0  0  0  0  0  0  0  0  0  0
    0.8441  -49.7720  -17.0825 N   0  0  0  0  0  0  0  0  0  0  0  0
    1.1535  -48.4762  -16.6875 C   0  0  0  0  0  0  0  0  0  0  0  0
    0.2227  -47.6671  -16.3660 O   0  0  0  0  0  0  0  0  0  0  0  0
    2.5351  -47.8752  -16.5859 C   0  0  0  0  0  0  0  0  0  0  0  0
    2.4726  -46.4676  -16.9247 N   0  0  0  0  0  0  0  0  0  0  0  0
    3.4605  -45.6915  -17.5861 C   0  0  0  0  0  0  0  0  0  0  0  0
    2.9993  -44.9721  -18.5243 O   0  0  0  0  0  0  0  0  0  0  0  0
    4.8564  -45.6569  -17.2896 C   0  0  0  0  0  0  0  0  0  0  0  0
    5.4508  -44.2554  -17.0202 C   0  0  0  0  0  0  0  0  0  0  0  0
    6.9210  -44.6840  -16.8351 C   0  0  0  0  0  0  0  0  0  0  0  0
    6.9950  -46.1290  -17.2948 C   0  0  0  0  0  0  0  0  0  0  0  0
    5.8400  -46.0695  -18.2557 N   0  0  0  0  0  0  0  0  0  0  0  0
    5.7590  -46.3259  -19.6151 C   0  0  0  0  0  0  0  0  0  0  0  0
    5.9037  -47.5145  -19.9773 O   0  0  0  0  0  0  0  0  0  0  0  0
    5.5188  -45.3376  -20.7451 C   0  0  0  0  0  0  0  0  0  0  0  0
    4.6075  -45.8958  -21.6583 N   0  0  0  0  0  0  0  0  0  0  0  0
    4.5116  -46.3507  -22.9485 C   0  0  0  0  0  0  0  0  0  0  0  0
    3.9313  -45.5671  -23.8187 O   0  0  0  0  0  0  0  0  0  0  0  0
    4.9409  -47.6184  -23.6248 C   0  0  0  0  0  0  0  0  0  0  0  0
    3.7809  -48.5225  -23.7284 N   0  0  0  0  0  0  0  0  0  0  0  0
    3.5588  -49.7910  -23.2482 C   0  0  0  0  0  0  0  0  0  0  0  0
    3.3283  -50.7053  -24.1377 O   0  0  0  0  0  0  0  0  0  0  0  0
    3.5353  -50.2919  -21.8525 C   0  0  0  0  0  0  0  0  0  0  0  0
    2.8078  -49.4591  -20.9366 N   0  0  0  0  0  0  0  0  0  0  0  0
    1.4174  -49.6034  -20.6441 C   0  0  0  0  0  0  0  0  0  0  0  0
    0.8027  -48.5620  -20.3273 O   0  0  0  0  0  0  0  0  0  0  0  0
    0.2555  -52.5819  -19.6045 H   0  0  0  0  0  0  0  0  0  0  0  0
   -0.1757  -49.9574  -17.3330 H   0  0  0  0  0  0  0  0  0  0  0  0
    1.5584  -46.0002  -16.6227 H   0  0  0  0  0  0  0  0  0  0  0  0
    3.6112  -45.9694  -21.1401 H   0  0  0  0  0  0  0  0  0  0  0  0
    2.9930  -48.0590  -24.2988 H   0  0  0  0  0  0  0  0  0  0  0  0
    3.3319  -48.7108  -20.4602 H   0  0  0  0  0  0  0  0  0  0  0  0
   -0.8141  -50.7485  -20.8351 C   0  0  0  0  0  0  0  0  0  0  0  0
   -1.2962  -51.6709  -21.9121 C   0  0  0  0  0  0  0  0  0  0  0  0
   -0.1122  -52.4079  -22.5277 C   0  0  0  0  0  0  0  0  0  0  0  0
   -0.6073  -53.2403  -23.5924 N   0  0  0  0  0  0  0  0  0  0  0  0
   -1.2895  -53.9823  -23.3888 H   0  0  0  0  0  0  0  0  0  0  0  0
   -1.1850  -53.0341  -25.9294 N   0  0  0  0  0  0  0  0  0  0  0  0
   -0.1252  -53.0138  -24.9376 C   0  0  0  0  0  0  0  0  0  0  0  0
    1.0330  -52.8321  -25.1852 N   0  0  0  0  0  0  0  0  0  0  0  0
   -1.1902  -52.2957  -26.6291 H   0  0  0  0  0  0  0  0  0  0  0  0
   -1.8702  -53.7905  -25.8692 H   0  0  0  0  0  0  0  0  0  0  0  0
    1.9962  -52.7097  -25.1492 H   0  0  0  0  0  0  0  0  0  0  0  0
    1.4697  -51.7782  -15.9691 C   0  0  0  0  0  0  0  0  0  0  0  0
    2.4199  -51.4415  -14.8546 C   0  0  0  0  0  0  0  0  0  0  0  0
    3.7208  -51.8587  -14.8695 C   0  0  0  0  0  0  0  0  0  0  0  0
    4.5685  -51.5459  -13.8364 C   0  0  0  0  0  0  0  0  0  0  0  0
    4.0998  -50.7980  -12.7655 C   0  0  0  0  0  0  0  0  0  0  0  0
    2.7893  -50.3691  -12.7357 C   0  0  0  0  0  0  0  0  0  0  0  0
    1.9699  -50.7006  -13.7864 C   0  0  0  0  0  0  0  0  0  0  0  0
    3.0174  -48.1221  -15.2008 C   0  0  0  0  0  0  0  0  0  0  0  0
    3.4719  -46.9384  -14.4466 C   0  0  0  0  0  0  0  0  0  0  0  0
    4.8095  -46.7559  -14.1486 C   0  0  0  0  0  0  0  0  0  0  0  0
    5.2624  -45.6721  -13.4310 C   0  0  0  0  0  0  0  0  0  0  0  0
    4.3795  -44.7157  -12.9786 C   0  0  0  0  0  0  0  0  0  0  0  0
    3.0430  -44.8739  -13.2627 C   0  0  0  0  0  0  0  0  0  0  0  0
    2.6082  -45.9785  -13.9895 C   0  0  0  0  0  0  0  0  0  0  0  0
    6.8713  -44.8898  -21.1328 C   0  0  0  0  0  0  0  0  0  0  0  0
    7.2147  -44.9162  -22.5642 C   0  0  0  0  0  0  0  0  0  0  0  0
    7.8949  -45.9435  -23.1475 C   0  0  0  0  0  0  0  0  0  0  0  0
    8.1905  -45.9663  -24.4871 C   0  0  0  0  0  0  0  0  0  0  0  0
    7.8006  -44.9320  -25.2889 C   0  0  0  0  0  0  0  0  0  0  0  0
    7.1102  -43.8867  -24.7000 C   0  0  0  0  0  0  0  0  0  0  0  0
    6.8121  -43.8589  -23.3660 C   0  0  0  0  0  0  0  0  0  0  0  0
    5.3290  -47.2037  -25.0582 C   0  0  0  0  0  0  0  0  0  0  0  0
    4.2251  -46.7971  -25.9089 C   0  0  0  0  0  0  0  0  0  0  0  0
    4.2918  -45.5555  -26.5484 C   0  0  0  0  0  0  0  0  0  0  0  0
    3.2811  -45.0868  -27.3463 C   0  0  0  0  0  0  0  0  0  0  0  0
    2.1474  -45.8366  -27.5466 C   0  0  0  0  0  0  0  0  0  0  0  0
    2.0715  -47.0700  -26.9156 C   0  0  0  0  0  0  0  0  0  0  0  0
    3.0992  -47.5331  -26.1124 C   0  0  0  0  0  0  0  0  0  0  0  0
    4.8960  -50.7106  -21.4382 C   0  0  0  0  0  0  0  0  0  0  0  0
    5.8507  -50.5465  -22.5614 C   0  0  0  0  0  0  0  0  0  0  0  0
    6.8400  -49.6249  -22.6416 C   0  0  0  0  0  0  0  0  0  0  0  0
    7.6866  -49.5460  -23.7340 C   0  0  0  0  0  0  0  0  0  0  0  0
    7.5294  -50.4262  -24.7779 C   0  0  0  0  0  0  0  0  0  0  0  0
    6.5308  -51.3900  -24.7444 C   0  0  0  0  0  0  0  0  0  0  0  0
    5.7103  -51.4310  -23.6354 C   0  0  0  0  0  0  0  0  0  0  0  0
 43 44  1  0  0  0
 44 45  2  0  0  0
 44 41  1  0  0  0
 41 40  1  0  0  0
 40 39  1  0  0  0
 39 38  1  0  0  0
 38  1  1  0  0  0
  1  2  1  0  0  0
  2  3  1  0  0  0
  3  4  2  0  0  0
  3  5  1  0  0  0
  5 49  1  0  0  0
 49 50  1  0  0  0
 50 51  2  0  0  0
 51 52  1  0  0  0
 52 53  2  0  0  0
 53 54  1  0  0  0
 54 55  2  0  0  0
  5  6  1  0  0  0
  6  7  1  0  0  0
  7  8  2  0  0  0
  7  9  1  0  0  0
  9 56  1  0  0  0
 56 57  1  0  0  0
 57 58  2  0  0  0
 58 59  1  0  0  0
 59 60  2  0  0  0
 60 61  1  0  0  0
 61 62  2  0  0  0
  9 10  1  0  0  0
 10 11  1  0  0  0
 11 12  2  0  0  0
 11 13  1  0  0  0
 13 14  1  0  0  0
 14 15  1  0  0  0
 15 16  1  0  0  0
 16 17  1  0  0  0
 17 18  1  0  0  0
 18 19  2  0  0  0
 18 20  1  0  0  0
 20 63  1  0  0  0
 63 64  1  0  0  0
 64 65  2  0  0  0
 65 66  1  0  0  0
 66 67  2  0  0  0
 67 68  1  0  0  0
 68 69  2  0  0  0
 20 21  1  0  0  0
 21 22  1  0  0  0
 22 23  2  0  0  0
 22 24  1  0  0  0
 24 70  1  0  0  0
 70 71  1  0  0  0
 71 72  2  0  0  0
 72 73  1  0  0  0
 73 74  2  0  0  0
 74 75  1  0  0  0
 75 76  2  0  0  0
 24 25  1  0  0  0
 25 26  1  0  0  0
 26 27  2  0  0  0
 26 28  1  0  0  0
 28 77  1  0  0  0
 77 78  1  0  0  0
 78 79  2  0  0  0
 79 80  1  0  0  0
 80 81  2  0  0  0
 81 82  1  0  0  0
 82 83  2  0  0  0
 28 29  1  0  0  0
 29 30  1  0  0  0
 30 31  2  0  0  0
 30  1  1  0  0  0
 55 50  1  0  0  0
 62 57  1  0  0  0
 17 13  1  0  0  0
 69 64  1  0  0  0
 76 71  1  0  0  0
 83 78  1  0  0  0
 43 46  1  0  0  0
 43 47  1  0  0  0
 45 48  1  0  0  0
 41 42  1  0  0  0
  2 32  1  0  0  0
  6 33  1  0  0  0
 10 34  1  0  0  0
 21 35  1  0  0  0
 25 36  1  0  0  0
 29 37  1  0  0  0
M  END
> <minimizedAffinity>
-3.33319

> <CNNscore>
0.3887377679

> <CNNaffinity>
8.0821208954

> <CNN_VS>
3.1418256760

> <CNNaffinity_variance>
1.7470802069

$$$$
[H]N=C(N([H])[H])N([H])C([H])([H])C([H])([H])C([H])([H])[C@@]1([H])C(=O)N([H])[C@]([H])(C([H])([H])c2c([H])c([H])c([H])c([H])c2[H])C(=O)N([H])[C@@]([H])(C([H])([H])c2c([H])c([H])c([H])c([H])c2[H])C(=O)N([H])[C@]([H])(C([H])([H])c2c([H])c([H])c([H])c([H])c2[H])C(=O)N2C([H])([H])C([H])([H])C([H])([H])[C@@]2([H])C(=O)N([H])[C@@]([H])(C([H])([H])c2c([H])c([H])c([H])c([H])c2[H])C(=O)N([H])[C@@]([H])(C([H])([H])c2c([H])c([H])c([H])c([H])c2[H])C(=O)N1[H]


 83 89  0  0  0  0  0  0  0  0999 V2000
    3.1540  -52.0713  -23.2524 C   0  0  0  0  0  0  0  0  0  0  0  0
    2.5628  -51.2752  -24.3224 N   0  0  0  0  0  0  0  0  0  0  0  0
    2.3579  -49.9432  -24.5292 C   0  0  0  0  0  0  0  0  0  0  0  0
    1.1226  -49.5319  -24.4179 O   0  0  0  0  0  0  0  0  0  0  0  0
    3.2264  -48.7966  -24.8654 C   0  0  0  0  0  0  0  0  0  0  0  0
    4.6166  -48.9865  -24.8478 N   0  0  0  0  0  0  0  0  0  0  0  0
    5.5672  -48.1840  -24.2288 C   0  0  0  0  0  0  0  0  0  0  0  0
    6.8004  -48.3102  -24.5253 O   0  0  0  0  0  0  0  0  0  0  0  0
    5.3039  -47.1202  -23.1899 C   0  0  0  0  0  0  0  0  0  0  0  0
    6.4148  -47.0710  -22.2607 N   0  0  0  0  0  0  0  0  0  0  0  0
    6.3696  -46.7803  -20.8717 C   0  0  0  0  0  0  0  0  0  0  0  0
    7.0332  -47.5940  -20.1591 O   0  0  0  0  0  0  0  0  0  0  0  0
    5.6761  -45.6987  -20.2497 C   0  0  0  0  0  0  0  0  0  0  0  0
    6.5302  -44.7918  -19.3341 C   0  0  0  0  0  0  0  0  0  0  0  0
    5.3997  -43.8621  -18.8475 C   0  0  0  0  0  0  0  0  0  0  0  0
    4.1028  -44.5165  -19.2886 C   0  0  0  0  0  0  0  0  0  0  0  0
    4.6141  -45.9304  -19.3067 N   0  0  0  0  0  0  0  0  0  0  0  0
    4.1974  -47.0689  -18.6355 C   0  0  0  0  0  0  0  0  0  0  0  0
    3.0869  -47.5442  -18.9610 O   0  0  0  0  0  0  0  0  0  0  0  0
    4.9198  -47.8276  -17.5337 C   0  0  0  0  0  0  0  0  0  0  0  0
    4.8043  -49.2077  -17.7738 N   0  0  0  0  0  0  0  0  0  0  0  0
    4.2481  -50.3514  -17.2606 C   0  0  0  0  0  0  0  0  0  0  0  0
    5.0427  -51.1708  -16.6237 O   0  0  0  0  0  0  0  0  0  0  0  0
    2.8565  -50.9101  -17.2699 C   0  0  0  0  0  0  0  0  0  0  0  0
    2.7508  -51.9146  -18.3440 N   0  0  0  0  0  0  0  0  0  0  0  0
    1.9374  -51.9961  -19.4489 C   0  0  0  0  0  0  0  0  0  0  0  0
    1.1591  -53.0311  -19.5089 O   0  0  0  0  0  0  0  0  0  0  0  0
    1.8060  -51.0785  -20.6064 C   0  0  0  0  0  0  0  0  0  0  0  0
    3.0563  -50.6263  -21.1486 N   0  0  0  0  0  0  0  0  0  0  0  0
    3.7680  -51.2865  -22.1961 C   0  0  0  0  0  0  0  0  0  0  0  0
    5.0123  -51.1673  -22.1867 O   0  0  0  0  0  0  0  0  0  0  0  0
    2.1979  -51.9344  -25.0974 H   0  0  0  0  0  0  0  0  0  0  0  0
    4.9873  -49.8413  -25.3665 H   0  0  0  0  0  0  0  0  0  0  0  0
    7.3583  -47.2851  -22.7180 H   0  0  0  0  0  0  0  0  0  0  0  0
    5.3961  -49.4405  -18.7024 H   0  0  0  0  0  0  0  0  0  0  0  0
    3.4578  -52.7116  -18.1839 H   0  0  0  0  0  0  0  0  0  0  0  0
    3.4595  -49.7652  -20.7517 H   0  0  0  0  0  0  0  0  0  0  0  0
    4.0472  -53.0675  -23.9503 C   0  0  0  0  0  0  0  0  0  0  0  0
    3.3688  -53.6033  -25.1734 C   0  0  0  0  0  0  0  0  0  0  0  0
    3.9553  -52.9463  -26.4177 C   0  0  0  0  0  0  0  0  0  0  0  0
    2.9419  -52.1071  -27.0010 N   0  0  0  0  0  0  0  0  0  0  0  0
    2.9840  -51.0876  -26.8739 H   0  0  0  0  0  0  0  0  0  0  0  0
    2.3142  -53.8802  -28.5177 N   0  0  0  0  0  0  0  0  0  0  0  0
    1.8740  -52.7247  -27.7571 C   0  0  0  0  0  0  0  0  0  0  0  0
    0.7505  -52.3083  -27.7439 N   0  0  0  0  0  0  0  0  0  0  0  0
    1.7363  -54.7166  -28.4812 H   0  0  0  0  0  0  0  0  0  0  0  0
    3.1833  -53.7899  -29.0484 H   0  0  0  0  0  0  0  0  0  0  0  0
   -0.0672  -51.8085  -27.5841 H   0  0  0  0  0  0  0  0  0  0  0  0
    2.8527  -48.2540  -26.2648 C   0  0  0  0  0  0  0  0  0  0  0  0
    2.9893  -46.7579  -26.2989 C   0  0  0  0  0  0  0  0  0  0  0  0
    2.4818  -45.9677  -25.3068 C   0  0  0  0  0  0  0  0  0  0  0  0
    2.6115  -44.6025  -25.3632 C   0  0  0  0  0  0  0  0  0  0  0  0
    3.2652  -44.0184  -26.4391 C   0  0  0  0  0  0  0  0  0  0  0  0
    3.7833  -44.8024  -27.4486 C   0  0  0  0  0  0  0  0  0  0  0  0
    3.6349  -46.1644  -27.3589 C   0  0  0  0  0  0  0  0  0  0  0  0
    5.0947  -45.8409  -23.9190 C   0  0  0  0  0  0  0  0  0  0  0  0
    6.1642  -45.4383  -24.8521 C   0  0  0  0  0  0  0  0  0  0  0  0
    6.8927  -44.2822  -24.6420 C   0  0  0  0  0  0  0  0  0  0  0  0
    7.8838  -43.8702  -25.5039 C   0  0  0  0  0  0  0  0  0  0  0  0
    8.1873  -44.6118  -26.6250 C   0  0  0  0  0  0  0  0  0  0  0  0
    7.4771  -45.7669  -26.8560 C   0  0  0  0  0  0  0  0  0  0  0  0
    6.4788  -46.1633  -25.9708 C   0  0  0  0  0  0  0  0  0  0  0  0
    4.4571  -47.1883  -16.2858 C   0  0  0  0  0  0  0  0  0  0  0  0
    5.4227  -47.0708  -15.1806 C   0  0  0  0  0  0  0  0  0  0  0  0
    6.6143  -46.4194  -15.2996 C   0  0  0  0  0  0  0  0  0  0  0  0
    7.4966  -46.2984  -14.2559 C   0  0  0  0  0  0  0  0  0  0  0  0
    7.1940  -46.8433  -13.0410 C   0  0  0  0  0  0  0  0  0  0  0  0
    5.9852  -47.5060  -12.9164 C   0  0  0  0  0  0  0  0  0  0  0  0
    5.1018  -47.6290  -13.9526 C   0  0  0  0  0  0  0  0  0  0  0  0
    2.7081  -51.6555  -15.9284 C   0  0  0  0  0  0  0  0  0  0  0  0
    2.1231  -50.8820  -14.8480 C   0  0  0  0  0  0  0  0  0  0  0  0
    1.2594  -51.5226  -13.9544 C   0  0  0  0  0  0  0  0  0  0  0  0
    0.6461  -50.8586  -12.9244 C   0  0  0  0  0  0  0  0  0  0  0  0
    0.8642  -49.5155  -12.7340 C   0  0  0  0  0  0  0  0  0  0  0  0
    1.7193  -48.8707  -13.6162 C   0  0  0  0  0  0  0  0  0  0  0  0
    2.3335  -49.5523  -14.6525 C   0  0  0  0  0  0  0  0  0  0  0  0
    0.7872  -50.0398  -20.3204 C   0  0  0  0  0  0  0  0  0  0  0  0
    0.2149  -50.2375  -18.9664 C   0  0  0  0  0  0  0  0  0  0  0  0
    0.3123  -49.3782  -17.9240 C   0  0  0  0  0  0  0  0  0  0  0  0
   -0.2565  -49.6480  -16.6911 C   0  0  0  0  0  0  0  0  0  0  0  0
   -0.9460  -50.8225  -16.5056 C   0  0  0  0  0  0  0  0  0  0  0  0
   -1.0750  -51.7367  -17.5424 C   0  0  0  0  0  0  0  0  0  0  0  0
   -0.4912  -51.4255  -18.7536 C   0  0  0  0  0  0  0  0  0  0  0  0
 43 44  1  0  0  0
 44 45  2  0  0  0
 44 41  1  0  0  0
 41 40  1  0  0  0
 40 39  1  0  0  0
 39 38  1  0  0  0
 38  1  1  0  0  0
  1  2  1  0  0  0
  2  3  1  0  0  0
  3  4  2  0  0  0
  3  5  1  0  0  0
  5 49  1  0  0  0
 49 50  1  0  0  0
 50 51  2  0  0  0
 51 52  1  0  0  0
 52 53  2  0  0  0
 53 54  1  0  0  0
 54 55  2  0  0  0
  5  6  1  0  0  0
  6  7  1  0  0  0
  7  8  2  0  0  0
  7  9  1  0  0  0
  9 56  1  0  0  0
 56 57  1  0  0  0
 57 58  2  0  0  0
 58 59  1  0  0  0
 59 60  2  0  0  0
 60 61  1  0  0  0
 61 62  2  0  0  0
  9 10  1  0  0  0
 10 11  1  0  0  0
 11 12  2  0  0  0
 11 13  1  0  0  0
 13 14  1  0  0  0
 14 15  1  0  0  0
 15 16  1  0  0  0
 16 17  1  0  0  0
 17 18  1  0  0  0
 18 19  2  0  0  0
 18 20  1  0  0  0
 20 63  1  0  0  0
 63 64  1  0  0  0
 64 65  2  0  0  0
 65 66  1  0  0  0
 66 67  2  0  0  0
 67 68  1  0  0  0
 68 69  2  0  0  0
 20 21  1  0  0  0
 21 22  1  0  0  0
 22 23  2  0  0  0
 22 24  1  0  0  0
 24 70  1  0  0  0
 70 71  1  0  0  0
 71 72  2  0  0  0
 72 73  1  0  0  0
 73 74  2  0  0  0
 74 75  1  0  0  0
 75 76  2  0  0  0
 24 25  1  0  0  0
 25 26  1  0  0  0
 26 27  2  0  0  0
 26 28  1  0  0  0
 28 77  1  0  0  0
 77 78  1  0  0  0
 78 79  2  0  0  0
 79 80  1  0  0  0
 80 81  2  0  0  0
 81 82  1  0  0  0
 82 83  2  0  0  0
 28 29  1  0  0  0
 29 30  1  0  0  0
 30 31  2  0  0  0
 30  1  1  0  0  0
 55 50  1  0  0  0
 62 57  1  0  0  0
 17 13  1  0  0  0
 69 64  1  0  0  0
 76 71  1  0  0  0
 83 78  1  0  0  0
 43 46  1  0  0  0
 43 47  1  0  0  0
 45 48  1  0  0  0
 41 42  1  0  0  0
  2 32  1  0  0  0
  6 33  1  0  0  0
 10 34  1  0  0  0
 21 35  1  0  0  0
 25 36  1  0  0  0
 29 37  1  0  0  0
M  END
> <minimizedAffinity>
-2.41570

> <CNNscore>
0.3868124783

> <CNNaffinity>
7.6052427292

> <CNN_VS>
2.9418027401

> <CNNaffinity_variance>
1.5509780645

$$$$
[H]N=C(N([H])[H])N([H])C([H])([H])C([H])([H])C([H])([H])[C@@]1([H])C(=O)N([H])[C@]([H])(C([H])([H])c2c([H])c([H])c([H])c([H])c2[H])C(=O)N([H])[C@@]([H])(C([H])([H])c2c([H])c([H])c([H])c([H])c2[H])C(=O)N([H])[C@]([H])(C([H])([H])c2c([H])c([H])c([H])c([H])c2[H])C(=O)N2C([H])([H])C([H])([H])C([H])([H])[C@@]2([H])C(=O)N([H])[C@@]([H])(C([H])([H])c2c([H])c([H])c([H])c([H])c2[H])C(=O)N([H])[C@@]([H])(C([H])([H])c2c([H])c([H])c([H])c([H])c2[H])C(=O)N1[H]


 83 89  0  0  0  0  0  0  0  0999 V2000
    0.8770  -52.1825  -20.3013 C   0  0  0  0  0  0  0  0  0  0  0  0
    0.6191  -51.3395  -21.4636 N   0  0  0  0  0  0  0  0  0  0  0  0
    1.0496  -50.1134  -21.8768 C   0  0  0  0  0  0  0  0  0  0  0  0
    0.1788  -49.1431  -21.7875 O   0  0  0  0  0  0  0  0  0  0  0  0
    2.3144  -49.5859  -22.4277 C   0  0  0  0  0  0  0  0  0  0  0  0
    3.4399  -50.4239  -22.4318 N   0  0  0  0  0  0  0  0  0  0  0  0
    4.7200  -50.1152  -21.9881 C   0  0  0  0  0  0  0  0  0  0  0  0
    5.7035  -50.8609  -22.3063 O   0  0  0  0  0  0  0  0  0  0  0  0
    5.1113  -48.9379  -21.1271 C   0  0  0  0  0  0  0  0  0  0  0  0
    6.2084  -49.3200  -20.2609 N   0  0  0  0  0  0  0  0  0  0  0  0
    6.4622  -48.8739  -18.9371 C   0  0  0  0  0  0  0  0  0  0  0  0
    6.7348  -49.8118  -18.1270 O   0  0  0  0  0  0  0  0  0  0  0  0
    6.4399  -47.5239  -18.4739 C   0  0  0  0  0  0  0  0  0  0  0  0
    7.7183  -47.0410  -17.7511 C   0  0  0  0  0  0  0  0  0  0  0  0
    7.2272  -45.6267  -17.3801 C   0  0  0  0  0  0  0  0  0  0  0  0
    5.7350  -45.6169  -17.6596 C   0  0  0  0  0  0  0  0  0  0  0  0
    5.5081  -47.0907  -17.4664 N   0  0  0  0  0  0  0  0  0  0  0  0
    4.6788  -47.7893  -16.6035 C   0  0  0  0  0  0  0  0  0  0  0  0
    3.4474  -47.7008  -16.8051 O   0  0  0  0  0  0  0  0  0  0  0  0
    5.0725  -48.6598  -15.4209 C   0  0  0  0  0  0  0  0  0  0  0  0
    4.2896  -49.8272  -15.4285 N   0  0  0  0  0  0  0  0  0  0  0  0
    3.3184  -50.4822  -14.7152 C   0  0  0  0  0  0  0  0  0  0  0  0
    3.6943  -51.4980  -13.9838 O   0  0  0  0  0  0  0  0  0  0  0  0
    1.8373  -50.2898  -14.5810 C   0  0  0  0  0  0  0  0  0  0  0  0
    1.1481  -51.2407  -15.4724 N   0  0  0  0  0  0  0  0  0  0  0  0
    0.2757  -51.0531  -16.5177 C   0  0  0  0  0  0  0  0  0  0  0  0
   -0.9017  -51.5772  -16.3790 O   0  0  0  0  0  0  0  0  0  0  0  0
    0.4673  -50.3394  -17.8035 C   0  0  0  0  0  0  0  0  0  0  0  0
    1.7128  -50.6237  -18.4588 N   0  0  0  0  0  0  0  0  0  0  0  0
    1.9036  -51.6709  -19.4109 C   0  0  0  0  0  0  0  0  0  0  0  0
    3.0476  -52.1718  -19.4679 O   0  0  0  0  0  0  0  0  0  0  0  0
   -0.0990  -51.8285  -22.1066 H   0  0  0  0  0  0  0  0  0  0  0  0
    3.2997  -51.4080  -22.8179 H   0  0  0  0  0  0  0  0  0  0  0  0
    6.8793  -50.0209  -20.7125 H   0  0  0  0  0  0  0  0  0  0  0  0
    4.5919  -50.4317  -16.3283 H   0  0  0  0  0  0  0  0  0  0  0  0
    1.4048  -52.2540  -15.2113 H   0  0  0  0  0  0  0  0  0  0  0  0
    2.5180  -50.0256  -18.2229 H   0  0  0  0  0  0  0  0  0  0  0  0
    1.1057  -53.5652  -20.8608 C   0  0  0  0  0  0  0  0  0  0  0  0
    0.9341  -53.5568  -22.3486 C   0  0  0  0  0  0  0  0  0  0  0  0
   -0.3706  -54.2519  -22.7210 C   0  0  0  0  0  0  0  0  0  0  0  0
   -0.8290  -53.7043  -23.9705 N   0  0  0  0  0  0  0  0  0  0  0  0
   -1.5191  -52.9419  -23.9744 H   0  0  0  0  0  0  0  0  0  0  0  0
   -0.5317  -55.6760  -25.3351 N   0  0  0  0  0  0  0  0  0  0  0  0
   -0.3058  -54.2479  -25.2050 C   0  0  0  0  0  0  0  0  0  0  0  0
    0.2539  -53.5720  -26.0209 N   0  0  0  0  0  0  0  0  0  0  0  0
   -0.8796  -56.0190  -26.2274 H   0  0  0  0  0  0  0  0  0  0  0  0
   -0.3294  -56.2596  -24.5204 H   0  0  0  0  0  0  0  0  0  0  0  0
    0.6624  -52.8491  -26.5255 H   0  0  0  0  0  0  0  0  0  0  0  0
    2.0894  -49.1088  -23.8817 C   0  0  0  0  0  0  0  0  0  0  0  0
    3.3162  -48.4121  -24.3991 C   0  0  0  0  0  0  0  0  0  0  0  0
    3.4576  -47.0554  -24.3228 C   0  0  0  0  0  0  0  0  0  0  0  0
    4.5837  -46.4400  -24.8094 C   0  0  0  0  0  0  0  0  0  0  0  0
    5.5896  -47.2036  -25.3848 C   0  0  0  0  0  0  0  0  0  0  0  0
    5.4622  -48.5742  -25.4691 C   0  0  0  0  0  0  0  0  0  0  0  0
    4.3220  -49.1557  -24.9720 C   0  0  0  0  0  0  0  0  0  0  0  0
    5.4545  -47.8202  -22.0465 C   0  0  0  0  0  0  0  0  0  0  0  0
    5.2928  -46.4569  -21.5063 C   0  0  0  0  0  0  0  0  0  0  0  0
    6.3544  -45.5716  -21.4817 C   0  0  0  0  0  0  0  0  0  0  0  0
    6.2403  -44.2999  -20.9676 C   0  0  0  0  0  0  0  0  0  0  0  0
    5.0406  -43.8602  -20.4513 C   0  0  0  0  0  0  0  0  0  0  0  0
    3.9687  -44.7221  -20.4649 C   0  0  0  0  0  0  0  0  0  0  0  0
    4.1081  -46.0038  -20.9894 C   0  0  0  0  0  0  0  0  0  0  0  0
    5.1115  -47.7267  -14.2772 C   0  0  0  0  0  0  0  0  0  0  0  0
    3.9322  -46.8749  -14.0509 C   0  0  0  0  0  0  0  0  0  0  0  0
    3.7178  -45.7074  -14.7212 C   0  0  0  0  0  0  0  0  0  0  0  0
    2.6040  -44.9328  -14.5165 C   0  0  0  0  0  0  0  0  0  0  0  0
    1.6591  -45.3235  -13.6114 C   0  0  0  0  0  0  0  0  0  0  0  0
    1.8736  -46.5081  -12.9284 C   0  0  0  0  0  0  0  0  0  0  0  0
    2.9811  -47.2844  -13.1287 C   0  0  0  0  0  0  0  0  0  0  0  0
    1.5039  -50.6956  -13.1313 C   0  0  0  0  0  0  0  0  0  0  0  0
    0.3461  -51.5579  -12.9770 C   0  0  0  0  0  0  0  0  0  0  0  0
    0.5428  -52.9404  -12.9078 C   0  0  0  0  0  0  0  0  0  0  0  0
   -0.4981  -53.8237  -12.7888 C   0  0  0  0  0  0  0  0  0  0  0  0
   -1.7938  -53.3698  -12.7335 C   0  0  0  0  0  0  0  0  0  0  0  0
   -1.9992  -51.9993  -12.8023 C   0  0  0  0  0  0  0  0  0  0  0  0
   -0.9396  -51.1168  -12.9218 C   0  0  0  0  0  0  0  0  0  0  0  0
    0.1030  -48.9100  -17.6523 C   0  0  0  0  0  0  0  0  0  0  0  0
   -0.6090  -48.6920  -16.3696 C   0  0  0  0  0  0  0  0  0  0  0  0
   -0.1482  -47.9863  -15.3093 C   0  0  0  0  0  0  0  0  0  0  0  0
   -0.8860  -47.8355  -14.1478 C   0  0  0  0  0  0  0  0  0  0  0  0
   -2.1288  -48.4153  -14.0546 C   0  0  0  0  0  0  0  0  0  0  0  0
   -2.6469  -49.1486  -15.1135 C   0  0  0  0  0  0  0  0  0  0  0  0
   -1.8757  -49.2724  -16.2513 C   0  0  0  0  0  0  0  0  0  0  0  0
 43 44  1  0  0  0
 44 45  2  0  0  0
 44 41  1  0  0  0
 41 40  1  0  0  0
 40 39  1  0  0  0
 39 38  1  0  0  0
 38  1  1  0  0  0
  1  2  1  0  0  0
  2  3  1  0  0  0
  3  4  2  0  0  0
  3  5  1  0  0  0
  5 49  1  0  0  0
 49 50  1  0  0  0
 50 51  2  0  0  0
 51 52  1  0  0  0
 52 53  2  0  0  0
 53 54  1  0  0  0
 54 55  2  0  0  0
  5  6  1  0  0  0
  6  7  1  0  0  0
  7  8  2  0  0  0
  7  9  1  0  0  0
  9 56  1  0  0  0
 56 57  1  0  0  0
 57 58  2  0  0  0
 58 59  1  0  0  0
 59 60  2  0  0  0
 60 61  1  0  0  0
 61 62  2  0  0  0
  9 10  1  0  0  0
 10 11  1  0  0  0
 11 12  2  0  0  0
 11 13  1  0  0  0
 13 14  1  0  0  0
 14 15  1  0  0  0
 15 16  1  0  0  0
 16 17  1  0  0  0
 17 18  1  0  0  0
 18 19  2  0  0  0
 18 20  1  0  0  0
 20 63  1  0  0  0
 63 64  1  0  0  0
 64 65  2  0  0  0
 65 66  1  0  0  0
 66 67  2  0  0  0
 67 68  1  0  0  0
 68 69  2  0  0  0
 20 21  1  0  0  0
 21 22  1  0  0  0
 22 23  2  0  0  0
 22 24  1  0  0  0
 24 70  1  0  0  0
 70 71  1  0  0  0
 71 72  2  0  0  0
 72 73  1  0  0  0
 73 74  2  0  0  0
 74 75  1  0  0  0
 75 76  2  0  0  0
 24 25  1  0  0  0
 25 26  1  0  0  0
 26 27  2  0  0  0
 26 28  1  0  0  0
 28 77  1  0  0  0
 77 78  1  0  0  0
 78 79  2  0  0  0
 79 80  1  0  0  0
 80 81  2  0  0  0
 81 82  1  0  0  0
 82 83  2  0  0  0
 28 29  1  0  0  0
 29 30  1  0  0  0
 30 31  2  0  0  0
 30  1  1  0  0  0
 55 50  1  0  0  0
 62 57  1  0  0  0
 17 13  1  0  0  0
 69 64  1  0  0  0
 76 71  1  0  0  0
 83 78  1  0  0  0
 43 46  1  0  0  0
 43 47  1  0  0  0
 45 48  1  0  0  0
 41 42  1  0  0  0
  2 32  1  0  0  0
  6 33  1  0  0  0
 10 34  1  0  0  0
 21 35  1  0  0  0
 25 36  1  0  0  0
 29 37  1  0  0  0
M  END
> <minimizedAffinity>
-0.71660

> <CNNscore>
0.3836608529

> <CNNaffinity>
7.5866456032

> <CNN_VS>
2.9106988907

> <CNNaffinity_variance>
1.5574996471

$$$$
[H]N=C(N([H])[H])N([H])C([H])([H])C([H])([H])C([H])([H])[C@@]1([H])C(=O)N([H])[C@]([H])(C([H])([H])c2c([H])c([H])c([H])c([H])c2[H])C(=O)N([H])[C@@]([H])(C([H])([H])c2c([H])c([H])c([H])c([H])c2[H])C(=O)N([H])[C@]([H])(C([H])([H])c2c([H])c([H])c([H])c([H])c2[H])C(=O)N2C([H])([H])C([H])([H])C([H])([H])[C@@]2([H])C(=O)N([H])[C@@]([H])(C([H])([H])c2c([H])c([H])c([H])c([H])c2[H])C(=O)N([H])[C@@]([H])(C([H])([H])c2c([H])c([H])c([H])c([H])c2[H])C(=O)N1[H]


 83 89  0  0  0  0  0  0  0  0999 V2000
    3.3577  -48.7631  -18.2675 C   0  0  0  0  0  0  0  0  0  0  0  0
    4.7546  -48.3542  -18.1681 N   0  0  0  0  0  0  0  0  0  0  0  0
    5.7476  -48.0976  -19.0665 C   0  0  0  0  0  0  0  0  0  0  0  0
    6.6895  -48.9996  -19.1489 O   0  0  0  0  0  0  0  0  0  0  0  0
    6.0372  -47.0007  -20.0124 C   0  0  0  0  0  0  0  0  0  0  0  0
    5.0545  -46.0199  -20.2160 N   0  0  0  0  0  0  0  0  0  0  0  0
    4.5821  -45.5425  -21.4324 C   0  0  0  0  0  0  0  0  0  0  0  0
    3.9028  -44.4648  -21.4752 O   0  0  0  0  0  0  0  0  0  0  0  0
    4.7866  -46.1791  -22.7864 C   0  0  0  0  0  0  0  0  0  0  0  0
    3.6205  -45.9370  -23.6120 N   0  0  0  0  0  0  0  0  0  0  0  0
    3.0626  -46.7956  -24.5955 C   0  0  0  0  0  0  0  0  0  0  0  0
    1.8038  -46.9266  -24.5024 O   0  0  0  0  0  0  0  0  0  0  0  0
    3.7703  -47.4818  -25.6279 C   0  0  0  0  0  0  0  0  0  0  0  0
    3.2568  -47.2435  -27.0665 C   0  0  0  0  0  0  0  0  0  0  0  0
    4.2239  -48.1992  -27.7947 C   0  0  0  0  0  0  0  0  0  0  0  0
    4.8996  -49.0162  -26.7081 C   0  0  0  0  0  0  0  0  0  0  0  0
    3.7910  -48.9191  -25.6970 N   0  0  0  0  0  0  0  0  0  0  0  0
    3.0436  -49.8928  -25.0537 C   0  0  0  0  0  0  0  0  0  0  0  0
    3.6422  -50.6079  -24.2199 O   0  0  0  0  0  0  0  0  0  0  0  0
    1.5691  -50.2168  -25.2329 C   0  0  0  0  0  0  0  0  0  0  0  0
    0.9898  -50.4362  -23.9711 N   0  0  0  0  0  0  0  0  0  0  0  0
    0.4118  -51.4137  -23.2023 C   0  0  0  0  0  0  0  0  0  0  0  0
   -0.8908  -51.4004  -23.0957 O   0  0  0  0  0  0  0  0  0  0  0  0
    0.9673  -52.5562  -22.4057 C   0  0  0  0  0  0  0  0  0  0  0  0
    1.0452  -52.1586  -20.9880 N   0  0  0  0  0  0  0  0  0  0  0  0
    2.1027  -52.0748  -20.1141 C   0  0  0  0  0  0  0  0  0  0  0  0
    2.0342  -52.8290  -19.0620 O   0  0  0  0  0  0  0  0  0  0  0  0
    3.3292  -51.2437  -20.1779 C   0  0  0  0  0  0  0  0  0  0  0  0
    3.0994  -49.8765  -20.5515 N   0  0  0  0  0  0  0  0  0  0  0  0
    2.8487  -48.8179  -19.6263 C   0  0  0  0  0  0  0  0  0  0  0  0
    2.1361  -47.8759  -20.0357 O   0  0  0  0  0  0  0  0  0  0  0  0
    5.0276  -48.2678  -17.1259 H   0  0  0  0  0  0  0  0  0  0  0  0
    4.6202  -45.5919  -19.3411 H   0  0  0  0  0  0  0  0  0  0  0  0
    3.1588  -44.9899  -23.4243 H   0  0  0  0  0  0  0  0  0  0  0  0
    0.9913  -49.4535  -23.4225 H   0  0  0  0  0  0  0  0  0  0  0  0
    0.0674  -51.9018  -20.6156 H   0  0  0  0  0  0  0  0  0  0  0  0
    3.1211  -49.6514  -21.5568 H   0  0  0  0  0  0  0  0  0  0  0  0
    2.6150  -47.8625  -17.3111 C   0  0  0  0  0  0  0  0  0  0  0  0
    1.6225  -48.6557  -16.5179 C   0  0  0  0  0  0  0  0  0  0  0  0
    2.2833  -49.1903  -15.2525 C   0  0  0  0  0  0  0  0  0  0  0  0
    1.2702  -49.8281  -14.4534 N   0  0  0  0  0  0  0  0  0  0  0  0
    0.5612  -49.2587  -13.9734 H   0  0  0  0  0  0  0  0  0  0  0  0
    2.4974  -51.7869  -13.7496 N   0  0  0  0  0  0  0  0  0  0  0  0
    1.2758  -51.2705  -14.3398 C   0  0  0  0  0  0  0  0  0  0  0  0
    0.3575  -51.9492  -14.7030 N   0  0  0  0  0  0  0  0  0  0  0  0
    2.4083  -52.4971  -13.0267 H   0  0  0  0  0  0  0  0  0  0  0  0
    3.3822  -51.4065  -14.0929 H   0  0  0  0  0  0  0  0  0  0  0  0
   -0.4820  -52.2879  -15.0559 H   0  0  0  0  0  0  0  0  0  0  0  0
    7.3331  -46.2731  -19.5840 C   0  0  0  0  0  0  0  0  0  0  0  0
    7.0776  -45.4190  -18.3743 C   0  0  0  0  0  0  0  0  0  0  0  0
    8.0980  -44.8317  -17.6814 C   0  0  0  0  0  0  0  0  0  0  0  0
    7.8413  -44.0621  -16.5744 C   0  0  0  0  0  0  0  0  0  0  0  0
    6.5313  -43.8781  -16.1545 C   0  0  0  0  0  0  0  0  0  0  0  0
    5.4900  -44.4639  -16.8434 C   0  0  0  0  0  0  0  0  0  0  0  0
    5.7843  -45.2272  -17.9461 C   0  0  0  0  0  0  0  0  0  0  0  0
    6.0348  -45.6037  -23.3548 C   0  0  0  0  0  0  0  0  0  0  0  0
    5.9974  -45.2481  -24.7861 C   0  0  0  0  0  0  0  0  0  0  0  0
    5.2128  -44.2037  -25.2387 C   0  0  0  0  0  0  0  0  0  0  0  0
    5.1423  -43.8593  -26.5696 C   0  0  0  0  0  0  0  0  0  0  0  0
    5.8661  -44.5582  -27.5112 C   0  0  0  0  0  0  0  0  0  0  0  0
    6.6553  -45.6015  -27.0861 C   0  0  0  0  0  0  0  0  0  0  0  0
    6.7102  -45.9319  -25.7350 C   0  0  0  0  0  0  0  0  0  0  0  0
    1.5447  -51.2228  -26.3134 C   0  0  0  0  0  0  0  0  0  0  0  0
    0.2295  -51.6444  -26.8235 C   0  0  0  0  0  0  0  0  0  0  0  0
    0.0572  -52.2321  -28.0415 C   0  0  0  0  0  0  0  0  0  0  0  0
   -1.1712  -52.6399  -28.4968 C   0  0  0  0  0  0  0  0  0  0  0  0
   -2.2798  -52.4610  -27.7200 C   0  0  0  0  0  0  0  0  0  0  0  0
   -2.1089  -51.8640  -26.4829 C   0  0  0  0  0  0  0  0  0  0  0  0
   -0.8874  -51.4564  -26.0236 C   0  0  0  0  0  0  0  0  0  0  0  0
   -0.0869  -53.6764  -22.5108 C   0  0  0  0  0  0  0  0  0  0  0  0
   -0.0716  -54.4311  -23.7510 C   0  0  0  0  0  0  0  0  0  0  0  0
   -0.9147  -55.5398  -23.8730 C   0  0  0  0  0  0  0  0  0  0  0  0
   -0.9414  -56.3198  -24.9995 C   0  0  0  0  0  0  0  0  0  0  0  0
   -0.1237  -56.0318  -26.0654 C   0  0  0  0  0  0  0  0  0  0  0  0
    0.7172  -54.9338  -25.9534 C   0  0  0  0  0  0  0  0  0  0  0  0
    0.7348  -54.1530  -24.8107 C   0  0  0  0  0  0  0  0  0  0  0  0
    4.3969  -51.9660  -20.9107 C   0  0  0  0  0  0  0  0  0  0  0  0
    5.1834  -51.0209  -21.7402 C   0  0  0  0  0  0  0  0  0  0  0  0
    4.9767  -49.6865  -21.8455 C   0  0  0  0  0  0  0  0  0  0  0  0
    5.7649  -48.8799  -22.6482 C   0  0  0  0  0  0  0  0  0  0  0  0
    6.7948  -49.4387  -23.3667 C   0  0  0  0  0  0  0  0  0  0  0  0
    7.0487  -50.8016  -23.2933 C   0  0  0  0  0  0  0  0  0  0  0  0
    6.2369  -51.5665  -22.4805 C   0  0  0  0  0  0  0  0  0  0  0  0
 43 44  1  0  0  0
 44 45  2  0  0  0
 44 41  1  0  0  0
 41 40  1  0  0  0
 40 39  1  0  0  0
 39 38  1  0  0  0
 38  1  1  0  0  0
  1  2  1  0  0  0
  2  3  1  0  0  0
  3  4  2  0  0  0
  3  5  1  0  0  0
  5 49  1  0  0  0
 49 50  1  0  0  0
 50 51  2  0  0  0
 51 52  1  0  0  0
 52 53  2  0  0  0
 53 54  1  0  0  0
 54 55  2  0  0  0
  5  6  1  0  0  0
  6  7  1  0  0  0
  7  8  2  0  0  0
  7  9  1  0  0  0
  9 56  1  0  0  0
 56 57  1  0  0  0
 57 58  2  0  0  0
 58 59  1  0  0  0
 59 60  2  0  0  0
 60 61  1  0  0  0
 61 62  2  0  0  0
  9 10  1  0  0  0
 10 11  1  0  0  0
 11 12  2  0  0  0
 11 13  1  0  0  0
 13 14  1  0  0  0
 14 15  1  0  0  0
 15 16  1  0  0  0
 16 17  1  0  0  0
 17 18  1  0  0  0
 18 19  2  0  0  0
 18 20  1  0  0  0
 20 63  1  0  0  0
 63 64  1  0  0  0
 64 65  2  0  0  0
 65 66  1  0  0  0
 66 67  2  0  0  0
 67 68  1  0  0  0
 68 69  2  0  0  0
 20 21  1  0  0  0
 21 22  1  0  0  0
 22 23  2  0  0  0
 22 24  1  0  0  0
 24 70  1  0  0  0
 70 71  1  0  0  0
 71 72  2  0  0  0
 72 73  1  0  0  0
 73 74  2  0  0  0
 74 75  1  0  0  0
 75 76  2  0  0  0
 24 25  1  0  0  0
 25 26  1  0  0  0
 26 27  2  0  0  0
 26 28  1  0  0  0
 28 77  1  0  0  0
 77 78  1  0  0  0
 78 79  2  0  0  0
 79 80  1  0  0  0
 80 81  2  0  0  0
 81 82  1  0  0  0
 82 83  2  0  0  0
 28 29  1  0  0  0
 29 30  1  0  0  0
 30 31  2  0  0  0
 30  1  1  0  0  0
 55 50  1  0  0  0
 62 57  1  0  0  0
 17 13  1  0  0  0
 69 64  1  0  0  0
 76 71  1  0  0  0
 83 78  1  0  0  0
 43 46  1  0  0  0
 43 47  1  0  0  0
 45 48  1  0  0  0
 41 42  1  0  0  0
  2 32  1  0  0  0
  6 33  1  0  0  0
 10 34  1  0  0  0
 21 35  1  0  0  0
 25 36  1  0  0  0
 29 37  1  0  0  0
M  END
> <minimizedAffinity>
-5.10253

> <CNNscore>
0.3779167831

> <CNNaffinity>
7.9654226303

> <CNN_VS>
3.0102667809

> <CNNaffinity_variance>
1.0887531042

$$$$
[H]N=C(N([H])[H])N([H])C([H])([H])C([H])([H])C([H])([H])[C@@]1([H])C(=O)N([H])[C@]([H])(C([H])([H])c2c([H])c([H])c([H])c([H])c2[H])C(=O)N([H])[C@@]([H])(C([H])([H])c2c([H])c([H])c([H])c([H])c2[H])C(=O)N([H])[C@]([H])(C([H])([H])c2c([H])c([H])c([H])c([H])c2[H])C(=O)N2C([H])([H])C([H])([H])C([H])([H])[C@@]2([H])C(=O)N([H])[C@@]([H])(C([H])([H])c2c([H])c([H])c([H])c([H])c2[H])C(=O)N([H])[C@@]([H])(C([H])([H])c2c([H])c([H])c([H])c([H])c2[H])C(=O)N1[H]


 83 89  0  0  0  0  0  0  0  0999 V2000
    2.1393  -51.5136  -24.0331 C   0  0  0  0  0  0  0  0  0  0  0  0
    2.4095  -50.5614  -25.1047 N   0  0  0  0  0  0  0  0  0  0  0  0
    3.0840  -49.3797  -25.1936 C   0  0  0  0  0  0  0  0  0  0  0  0
    2.3448  -48.3077  -25.3034 O   0  0  0  0  0  0  0  0  0  0  0  0
    4.5095  -48.9930  -25.1987 C   0  0  0  0  0  0  0  0  0  0  0  0
    5.4672  -49.9757  -24.9047 N   0  0  0  0  0  0  0  0  0  0  0  0
    6.5228  -49.8790  -24.0063 C   0  0  0  0  0  0  0  0  0  0  0  0
    7.4726  -50.7282  -24.0432 O   0  0  0  0  0  0  0  0  0  0  0  0
    6.6928  -48.8322  -22.9313 C   0  0  0  0  0  0  0  0  0  0  0  0
    7.3545  -49.4234  -21.7856 N   0  0  0  0  0  0  0  0  0  0  0  0
    7.1540  -49.1133  -20.4147 C   0  0  0  0  0  0  0  0  0  0  0  0
    7.0158  -50.1359  -19.6761 O   0  0  0  0  0  0  0  0  0  0  0  0
    7.1034  -47.8101  -19.8344 C   0  0  0  0  0  0  0  0  0  0  0  0
    8.0739  -47.5615  -18.6569 C   0  0  0  0  0  0  0  0  0  0  0  0
    7.6293  -46.1235  -18.3197 C   0  0  0  0  0  0  0  0  0  0  0  0
    6.3503  -45.8881  -19.1029 C   0  0  0  0  0  0  0  0  0  0  0  0
    5.9188  -47.3266  -19.1757 N   0  0  0  0  0  0  0  0  0  0  0  0
    4.7656  -47.9648  -18.7476 C   0  0  0  0  0  0  0  0  0  0  0  0
    3.7078  -47.6932  -19.3577 O   0  0  0  0  0  0  0  0  0  0  0  0
    4.6109  -48.9644  -17.6127 C   0  0  0  0  0  0  0  0  0  0  0  0
    3.7691  -50.0092  -18.0316 N   0  0  0  0  0  0  0  0  0  0  0  0
    2.5434  -50.5739  -17.7873 C   0  0  0  0  0  0  0  0  0  0  0  0
    2.5214  -51.6820  -17.0946 O   0  0  0  0  0  0  0  0  0  0  0  0
    1.1429  -50.1896  -18.1610 C   0  0  0  0  0  0  0  0  0  0  0  0
    0.7313  -50.9695  -19.3426 N   0  0  0  0  0  0  0  0  0  0  0  0
    0.3229  -50.5885  -20.5984 C   0  0  0  0  0  0  0  0  0  0  0  0
   -0.8716  -50.9540  -20.9449 O   0  0  0  0  0  0  0  0  0  0  0  0
    1.0409  -49.8170  -21.6417 C   0  0  0  0  0  0  0  0  0  0  0  0
    2.4032  -50.2220  -21.8456 N   0  0  0  0  0  0  0  0  0  0  0  0
    2.8186  -51.2141  -22.7852 C   0  0  0  0  0  0  0  0  0  0  0  0
    3.8471  -51.8623  -22.4943 O   0  0  0  0  0  0  0  0  0  0  0  0
    1.9282  -50.8991  -26.0117 H   0  0  0  0  0  0  0  0  0  0  0  0
    5.3768  -50.9006  -25.4278 H   0  0  0  0  0  0  0  0  0  0  0  0
    8.0680  -50.1755  -22.0510 H   0  0  0  0  0  0  0  0  0  0  0  0
    4.3142  -50.5830  -18.8317 H   0  0  0  0  0  0  0  0  0  0  0  0
    0.7702  -52.0247  -19.1284 H   0  0  0  0  0  0  0  0  0  0  0  0
    3.1243  -49.7592  -21.2733 H   0  0  0  0  0  0  0  0  0  0  0  0
    2.4126  -52.8706  -24.6340 C   0  0  0  0  0  0  0  0  0  0  0  0
    1.3666  -53.8501  -24.1985 C   0  0  0  0  0  0  0  0  0  0  0  0
    0.6986  -53.3566  -22.9202 C   0  0  0  0  0  0  0  0  0  0  0  0
   -0.2123  -54.3753  -22.4688 N   0  0  0  0  0  0  0  0  0  0  0  0
   -0.3580  -55.2211  -23.0352 H   0  0  0  0  0  0  0  0  0  0  0  0
   -2.3498  -54.0692  -21.3844 N   0  0  0  0  0  0  0  0  0  0  0  0
   -0.9121  -54.1816  -21.2173 C   0  0  0  0  0  0  0  0  0  0  0  0
   -0.3442  -54.1215  -20.1639 N   0  0  0  0  0  0  0  0  0  0  0  0
   -2.9412  -54.5998  -20.7492 H   0  0  0  0  0  0  0  0  0  0  0  0
   -2.6894  -53.4624  -22.1339 H   0  0  0  0  0  0  0  0  0  0  0  0
    0.3102  -54.1050  -19.4459 H   0  0  0  0  0  0  0  0  0  0  0  0
    4.8786  -48.3857  -26.5725 C   0  0  0  0  0  0  0  0  0  0  0  0
    4.3225  -46.9951  -26.6958 C   0  0  0  0  0  0  0  0  0  0  0  0
    3.2760  -46.7113  -27.5268 C   0  0  0  0  0  0  0  0  0  0  0  0
    2.7897  -45.4319  -27.6292 C   0  0  0  0  0  0  0  0  0  0  0  0
    3.3669  -44.4158  -26.8806 C   0  0  0  0  0  0  0  0  0  0  0  0
    4.4239  -44.6860  -26.0369 C   0  0  0  0  0  0  0  0  0  0  0  0
    4.8841  -45.9774  -25.9599 C   0  0  0  0  0  0  0  0  0  0  0  0
    7.4594  -47.7090  -23.5337 C   0  0  0  0  0  0  0  0  0  0  0  0
    7.7246  -47.8018  -24.9820 C   0  0  0  0  0  0  0  0  0  0  0  0
    7.7980  -46.6650  -25.7654 C   0  0  0  0  0  0  0  0  0  0  0  0
    8.0255  -46.7196  -27.1219 C   0  0  0  0  0  0  0  0  0  0  0  0
    8.1910  -47.9328  -27.7542 C   0  0  0  0  0  0  0  0  0  0  0  0
    8.1232  -49.0788  -26.9965 C   0  0  0  0  0  0  0  0  0  0  0  0
    7.8914  -48.9990  -25.6263 C   0  0  0  0  0  0  0  0  0  0  0  0
    4.3270  -48.1307  -16.4275 C   0  0  0  0  0  0  0  0  0  0  0  0
    3.7762  -48.8008  -15.2379 C   0  0  0  0  0  0  0  0  0  0  0  0
    2.9129  -48.1941  -14.3748 C   0  0  0  0  0  0  0  0  0  0  0  0
    2.3898  -48.8364  -13.2810 C   0  0  0  0  0  0  0  0  0  0  0  0
    2.7318  -50.1331  -13.0240 C   0  0  0  0  0  0  0  0  0  0  0  0
    3.6087  -50.7523  -13.8978 C   0  0  0  0  0  0  0  0  0  0  0  0
    4.1324  -50.1177  -14.9897 C   0  0  0  0  0  0  0  0  0  0  0  0
    0.2656  -50.6492  -16.9794 C   0  0  0  0  0  0  0  0  0  0  0  0
   -0.4017  -49.5864  -16.2494 C   0  0  0  0  0  0  0  0  0  0  0  0
    0.1894  -48.3196  -16.2175 C   0  0  0  0  0  0  0  0  0  0  0  0
   -0.3624  -47.2705  -15.5298 C   0  0  0  0  0  0  0  0  0  0  0  0
   -1.5366  -47.4337  -14.8354 C   0  0  0  0  0  0  0  0  0  0  0  0
   -2.1304  -48.6875  -14.8603 C   0  0  0  0  0  0  0  0  0  0  0  0
   -1.5639  -49.7395  -15.5591 C   0  0  0  0  0  0  0  0  0  0  0  0
    0.7952  -48.3657  -21.4622 C   0  0  0  0  0  0  0  0  0  0  0  0
    1.9315  -47.5796  -22.0013 C   0  0  0  0  0  0  0  0  0  0  0  0
    3.2467  -47.8511  -21.8247 C   0  0  0  0  0  0  0  0  0  0  0  0
    4.2423  -47.0574  -22.3680 C   0  0  0  0  0  0  0  0  0  0  0  0
    3.8985  -45.9552  -23.1138 C   0  0  0  0  0  0  0  0  0  0  0  0
    2.5646  -45.6335  -23.3248 C   0  0  0  0  0  0  0  0  0  0  0  0
    1.6065  -46.4532  -22.7636 C   0  0  0  0  0  0  0  0  0  0  0  0
 43 44  1  0  0  0
 44 45  2  0  0  0
 44 41  1  0  0  0
 41 40  1  0  0  0
 40 39  1  0  0  0
 39 38  1  0  0  0
 38  1  1  0  0  0
  1  2  1  0  0  0
  2  3  1  0  0  0
  3  4  2  0  0  0
  3  5  1  0  0  0
  5 49  1  0  0  0
 49 50  1  0  0  0
 50 51  2  0  0  0
 51 52  1  0  0  0
 52 53  2  0  0  0
 53 54  1  0  0  0
 54 55  2  0  0  0
  5  6  1  0  0  0
  6  7  1  0  0  0
  7  8  2  0  0  0
  7  9  1  0  0  0
  9 56  1  0  0  0
 56 57  1  0  0  0
 57 58  2  0  0  0
 58 59  1  0  0  0
 59 60  2  0  0  0
 60 61  1  0  0  0
 61 62  2  0  0  0
  9 10  1  0  0  0
 10 11  1  0  0  0
 11 12  2  0  0  0
 11 13  1  0  0  0
 13 14  1  0  0  0
 14 15  1  0  0  0
 15 16  1  0  0  0
 16 17  1  0  0  0
 17 18  1  0  0  0
 18 19  2  0  0  0
 18 20  1  0  0  0
 20 63  1  0  0  0
 63 64  1  0  0  0
 64 65  2  0  0  0
 65 66  1  0  0  0
 66 67  2  0  0  0
 67 68  1  0  0  0
 68 69  2  0  0  0
 20 21  1  0  0  0
 21 22  1  0  0  0
 22 23  2  0  0  0
 22 24  1  0  0  0
 24 70  1  0  0  0
 70 71  1  0  0  0
 71 72  2  0  0  0
 72 73  1  0  0  0
 73 74  2  0  0  0
 74 75  1  0  0  0
 75 76  2  0  0  0
 24 25  1  0  0  0
 25 26  1  0  0  0
 26 27  2  0  0  0
 26 28  1  0  0  0
 28 77  1  0  0  0
 77 78  1  0  0  0
 78 79  2  0  0  0
 79 80  1  0  0  0
 80 81  2  0  0  0
 81 82  1  0  0  0
 82 83  2  0  0  0
 28 29  1  0  0  0
 29 30  1  0  0  0
 30 31  2  0  0  0
 30  1  1  0  0  0
 55 50  1  0  0  0
 62 57  1  0  0  0
 17 13  1  0  0  0
 69 64  1  0  0  0
 76 71  1  0  0  0
 83 78  1  0  0  0
 43 46  1  0  0  0
 43 47  1  0  0  0
 45 48  1  0  0  0
 41 42  1  0  0  0
  2 32  1  0  0  0
  6 33  1  0  0  0
 10 34  1  0  0  0
 21 35  1  0  0  0
 25 36  1  0  0  0
 29 37  1  0  0  0
M  END
> <minimizedAffinity>
-5.34686

> <CNNscore>
0.3776692450

> <CNNaffinity>
7.7591743469

> <CNN_VS>
2.9304015636

> <CNNaffinity_variance>
0.6852058172

$$$$
[H]N=C(N([H])[H])N([H])C([H])([H])C([H])([H])C([H])([H])[C@@]1([H])C(=O)N([H])[C@]([H])(C([H])([H])c2c([H])c([H])c([H])c([H])c2[H])C(=O)N([H])[C@@]([H])(C([H])([H])c2c([H])c([H])c([H])c([H])c2[H])C(=O)N([H])[C@]([H])(C([H])([H])c2c([H])c([H])c([H])c([H])c2[H])C(=O)N2C([H])([H])C([H])([H])C([H])([H])[C@@]2([H])C(=O)N([H])[C@@]([H])(C([H])([H])c2c([H])c([H])c([H])c([H])c2[H])C(=O)N([H])[C@@]([H])(C([H])([H])c2c([H])c([H])c([H])c([H])c2[H])C(=O)N1[H]


 83 89  0  0  0  0  0  0  0  0999 V2000
    1.1076  -50.2697  -17.8804 C   0  0  0  0  0  0  0  0  0  0  0  0
    2.2570  -50.0146  -17.0190 N   0  0  0  0  0  0  0  0  0  0  0  0
    3.5234  -49.5502  -17.2178 C   0  0  0  0  0  0  0  0  0  0  0  0
    4.4768  -50.4402  -17.1367 O   0  0  0  0  0  0  0  0  0  0  0  0
    4.1125  -48.2285  -17.5141 C   0  0  0  0  0  0  0  0  0  0  0  0
    3.2474  -47.1683  -17.8253 N   0  0  0  0  0  0  0  0  0  0  0  0
    3.3460  -46.2892  -18.8968 C   0  0  0  0  0  0  0  0  0  0  0  0
    2.6659  -45.2113  -18.9032 O   0  0  0  0  0  0  0  0  0  0  0  0
    4.2092  -46.4635  -20.1236 C   0  0  0  0  0  0  0  0  0  0  0  0
    3.5373  -45.8847  -21.2697 N   0  0  0  0  0  0  0  0  0  0  0  0
    3.5775  -46.3352  -22.6155 C   0  0  0  0  0  0  0  0  0  0  0  0
    2.4355  -46.4005  -23.1651 O   0  0  0  0  0  0  0  0  0  0  0  0
    4.7414  -46.6962  -23.3588 C   0  0  0  0  0  0  0  0  0  0  0  0
    4.9282  -45.9674  -24.7093 C   0  0  0  0  0  0  0  0  0  0  0  0
    6.2062  -46.6997  -25.1671 C   0  0  0  0  0  0  0  0  0  0  0  0
    6.3784  -47.8711  -24.2168 C   0  0  0  0  0  0  0  0  0  0  0  0
    4.9252  -48.0305  -23.8656 N   0  0  0  0  0  0  0  0  0  0  0  0
    4.0598  -49.1054  -23.9924 C   0  0  0  0  0  0  0  0  0  0  0  0
    4.2708  -50.0931  -23.2542 O   0  0  0  0  0  0  0  0  0  0  0  0
    2.8707  -49.2490  -24.9287 C   0  0  0  0  0  0  0  0  0  0  0  0
    1.7987  -49.8256  -24.2257 N   0  0  0  0  0  0  0  0  0  0  0  0
    1.0253  -50.9569  -24.1714 C   0  0  0  0  0  0  0  0  0  0  0  0
   -0.1749  -50.8875  -24.6841 O   0  0  0  0  0  0  0  0  0  0  0  0
    1.2553  -52.3325  -23.6205 C   0  0  0  0  0  0  0  0  0  0  0  0
    0.6344  -52.4242  -22.2864 N   0  0  0  0  0  0  0  0  0  0  0  0
    1.1578  -52.7037  -21.0467 C   0  0  0  0  0  0  0  0  0  0  0  0
    0.6831  -53.7523  -20.4505 O   0  0  0  0  0  0  0  0  0  0  0  0
    2.1927  -51.9854  -20.2642 C   0  0  0  0  0  0  0  0  0  0  0  0
    2.0347  -50.5585  -20.2426 N   0  0  0  0  0  0  0  0  0  0  0  0
    1.2889  -49.8435  -19.2566 C   0  0  0  0  0  0  0  0  0  0  0  0
    0.7606  -48.7720  -19.6247 O   0  0  0  0  0  0  0  0  0  0  0  0
    2.0101  -50.2914  -16.0037 H   0  0  0  0  0  0  0  0  0  0  0  0
    2.4215  -47.0188  -17.1676 H   0  0  0  0  0  0  0  0  0  0  0  0
    2.9553  -45.0202  -21.0265 H   0  0  0  0  0  0  0  0  0  0  0  0
    1.4561  -49.0776  -23.4578 H   0  0  0  0  0  0  0  0  0  0  0  0
   -0.4242  -52.2343  -22.3509 H   0  0  0  0  0  0  0  0  0  0  0  0
    2.4957  -50.0208  -20.9910 H   0  0  0  0  0  0  0  0  0  0  0  0
   -0.0722  -49.6793  -17.1477 C   0  0  0  0  0  0  0  0  0  0  0  0
    0.3964  -48.7033  -16.1128 C   0  0  0  0  0  0  0  0  0  0  0  0
   -0.6411  -48.5925  -15.0015 C   0  0  0  0  0  0  0  0  0  0  0  0
   -1.7139  -49.5051  -15.2977 N   0  0  0  0  0  0  0  0  0  0  0  0
   -1.5504  -50.3029  -15.9255 H   0  0  0  0  0  0  0  0  0  0  0  0
   -2.9363  -48.5618  -13.4391 N   0  0  0  0  0  0  0  0  0  0  0  0
   -3.0120  -49.2738  -14.7020 C   0  0  0  0  0  0  0  0  0  0  0  0
   -4.0309  -49.6417  -15.2140 N   0  0  0  0  0  0  0  0  0  0  0  0
   -3.5839  -47.7910  -13.2929 H   0  0  0  0  0  0  0  0  0  0  0  0
   -2.2338  -48.8742  -12.7652 H   0  0  0  0  0  0  0  0  0  0  0  0
   -4.7083  -50.0219  -15.7976 H   0  0  0  0  0  0  0  0  0  0  0  0
    4.9917  -47.7729  -16.3259 C   0  0  0  0  0  0  0  0  0  0  0  0
    4.1628  -47.6529  -15.0782 C   0  0  0  0  0  0  0  0  0  0  0  0
    4.2494  -48.5683  -14.0678 C   0  0  0  0  0  0  0  0  0  0  0  0
    3.4766  -48.4427  -12.9406 C   0  0  0  0  0  0  0  0  0  0  0  0
    2.5980  -47.3745  -12.8256 C   0  0  0  0  0  0  0  0  0  0  0  0
    2.4990  -46.4418  -13.8367 C   0  0  0  0  0  0  0  0  0  0  0  0
    3.2875  -46.5993  -14.9497 C   0  0  0  0  0  0  0  0  0  0  0  0
    5.5193  -45.8237  -19.8295 C   0  0  0  0  0  0  0  0  0  0  0  0
    6.3187  -45.4056  -20.9968 C   0  0  0  0  0  0  0  0  0  0  0  0
    7.4145  -46.1414  -21.4082 C   0  0  0  0  0  0  0  0  0  0  0  0
    8.1909  -45.7676  -22.4816 C   0  0  0  0  0  0  0  0  0  0  0  0
    7.8945  -44.6260  -23.1942 C   0  0  0  0  0  0  0  0  0  0  0  0
    6.8085  -43.8768  -22.8053 C   0  0  0  0  0  0  0  0  0  0  0  0
    6.0382  -44.2742  -21.7161 C   0  0  0  0  0  0  0  0  0  0  0  0
    3.4401  -49.8445  -26.1540 C   0  0  0  0  0  0  0  0  0  0  0  0
    3.9551  -48.9262  -27.1832 C   0  0  0  0  0  0  0  0  0  0  0  0
    5.1291  -49.1328  -27.8447 C   0  0  0  0  0  0  0  0  0  0  0  0
    5.5880  -48.2806  -28.8171 C   0  0  0  0  0  0  0  0  0  0  0  0
    4.8603  -47.1752  -29.1534 C   0  0  0  0  0  0  0  0  0  0  0  0
    3.6680  -46.9617  -28.4834 C   0  0  0  0  0  0  0  0  0  0  0  0
    3.2053  -47.8078  -27.5143 C   0  0  0  0  0  0  0  0  0  0  0  0
    0.4772  -53.2805  -24.5550 C   0  0  0  0  0  0  0  0  0  0  0  0
    0.9165  -53.2895  -25.9387 C   0  0  0  0  0  0  0  0  0  0  0  0
   -0.0340  -53.4920  -26.9439 C   0  0  0  0  0  0  0  0  0  0  0  0
    0.3023  -53.5404  -28.2715 C   0  0  0  0  0  0  0  0  0  0  0  0
    1.6101  -53.3894  -28.6645 C   0  0  0  0  0  0  0  0  0  0  0  0
    2.5609  -53.1887  -27.6741 C   0  0  0  0  0  0  0  0  0  0  0  0
    2.2090  -53.1411  -26.3363 C   0  0  0  0  0  0  0  0  0  0  0  0
    3.5398  -52.5033  -20.6044 C   0  0  0  0  0  0  0  0  0  0  0  0
    4.5150  -51.3888  -20.6880 C   0  0  0  0  0  0  0  0  0  0  0  0
    4.3545  -50.1459  -20.1743 C   0  0  0  0  0  0  0  0  0  0  0  0
    5.3233  -49.1652  -20.3018 C   0  0  0  0  0  0  0  0  0  0  0  0
    6.4912  -49.4494  -20.9685 C   0  0  0  0  0  0  0  0  0  0  0  0
    6.7048  -50.7084  -21.5132 C   0  0  0  0  0  0  0  0  0  0  0  0
    5.7112  -51.6541  -21.3618 C   0  0  0  0  0  0  0  0  0  0  0  0
 43 44  1  0  0  0
 44 45  2  0  0  0
 44 41  1  0  0  0
 41 40  1  0  0  0
 40 39  1  0  0  0
 39 38  1  0  0  0
 38  1  1  0  0  0
  1  2  1  0  0  0
  2  3  1  0  0  0
  3  4  2  0  0  0
  3  5  1  0  0  0
  5 49  1  0  0  0
 49 50  1  0  0  0
 50 51  2  0  0  0
 51 52  1  0  0  0
 52 53  2  0  0  0
 53 54  1  0  0  0
 54 55  2  0  0  0
  5  6  1  0  0  0
  6  7  1  0  0  0
  7  8  2  0  0  0
  7  9  1  0  0  0
  9 56  1  0  0  0
 56 57  1  0  0  0
 57 58  2  0  0  0
 58 59  1  0  0  0
 59 60  2  0  0  0
 60 61  1  0  0  0
 61 62  2  0  0  0
  9 10  1  0  0  0
 10 11  1  0  0  0
 11 12  2  0  0  0
 11 13  1  0  0  0
 13 14  1  0  0  0
 14 15  1  0  0  0
 15 16  1  0  0  0
 16 17  1  0  0  0
 17 18  1  0  0  0
 18 19  2  0  0  0
 18 20  1  0  0  0
 20 63  1  0  0  0
 63 64  1  0  0  0
 64 65  2  0  0  0
 65 66  1  0  0  0
 66 67  2  0  0  0
 67 68  1  0  0  0
 68 69  2  0  0  0
 20 21  1  0  0  0
 21 22  1  0  0  0
 22 23  2  0  0  0
 22 24  1  0  0  0
 24 70  1  0  0  0
 70 71  1  0  0  0
 71 72  2  0  0  0
 72 73  1  0  0  0
 73 74  2  0  0  0
 74 75  1  0  0  0
 75 76  2  0  0  0
 24 25  1  0  0  0
 25 26  1  0  0  0
 26 27  2  0  0  0
 26 28  1  0  0  0
 28 77  1  0  0  0
 77 78  1  0  0  0
 78 79  2  0  0  0
 79 80  1  0  0  0
 80 81  2  0  0  0
 81 82  1  0  0  0
 82 83  2  0  0  0
 28 29  1  0  0  0
 29 30  1  0  0  0
 30 31  2  0  0  0
 30  1  1  0  0  0
 55 50  1  0  0  0
 62 57  1  0  0  0
 17 13  1  0  0  0
 69 64  1  0  0  0
 76 71  1  0  0  0
 83 78  1  0  0  0
 43 46  1  0  0  0
 43 47  1  0  0  0
 45 48  1  0  0  0
 41 42  1  0  0  0
  2 32  1  0  0  0
  6 33  1  0  0  0
 10 34  1  0  0  0
 21 35  1  0  0  0
 25 36  1  0  0  0
 29 37  1  0  0  0
M  END
> <minimizedAffinity>
-4.72012

> <CNNscore>
0.3769892156

> <CNNaffinity>
7.6565208435

> <CNN_VS>
2.8864257336

> <CNNaffinity_variance>
1.0450154543

$$$$
[H]N=C(N([H])[H])N([H])C([H])([H])C([H])([H])C([H])([H])[C@@]1([H])C(=O)N([H])[C@]([H])(C([H])([H])c2c([H])c([H])c([H])c([H])c2[H])C(=O)N([H])[C@@]([H])(C([H])([H])c2c([H])c([H])c([H])c([H])c2[H])C(=O)N([H])[C@]([H])(C([H])([H])c2c([H])c([H])c([H])c([H])c2[H])C(=O)N2C([H])([H])C([H])([H])C([H])([H])[C@@]2([H])C(=O)N([H])[C@@]([H])(C([H])([H])c2c([H])c([H])c([H])c([H])c2[H])C(=O)N([H])[C@@]([H])(C([H])([H])c2c([H])c([H])c([H])c([H])c2[H])C(=O)N1[H]


 83 89  0  0  0  0  0  0  0  0999 V2000
    0.8086  -51.2798  -18.7615 C   0  0  0  0  0  0  0  0  0  0  0  0
    1.4834  -51.3344  -17.4693 N   0  0  0  0  0  0  0  0  0  0  0  0
    2.5496  -50.6915  -16.9134 C   0  0  0  0  0  0  0  0  0  0  0  0
    3.6403  -51.3999  -16.7866 O   0  0  0  0  0  0  0  0  0  0  0  0
    2.7880  -49.3298  -16.3930 C   0  0  0  0  0  0  0  0  0  0  0  0
    1.8020  -48.3540  -16.6044 N   0  0  0  0  0  0  0  0  0  0  0  0
    1.9839  -47.0679  -17.0982 C   0  0  0  0  0  0  0  0  0  0  0  0
    1.0589  -46.1997  -16.9749 O   0  0  0  0  0  0  0  0  0  0  0  0
    3.2123  -46.5427  -17.8021 C   0  0  0  0  0  0  0  0  0  0  0  0
    2.8149  -45.5708  -18.8008 N   0  0  0  0  0  0  0  0  0  0  0  0
    3.4244  -45.3236  -20.0591 C   0  0  0  0  0  0  0  0  0  0  0  0
    2.5983  -45.2498  -21.0195 O   0  0  0  0  0  0  0  0  0  0  0  0
    4.8192  -45.1562  -20.3119 C   0  0  0  0  0  0  0  0  0  0  0  0
    5.2159  -43.8596  -21.0546 C   0  0  0  0  0  0  0  0  0  0  0  0
    6.7285  -44.1388  -21.1694 C   0  0  0  0  0  0  0  0  0  0  0  0
    6.9154  -45.5923  -20.7729 C   0  0  0  0  0  0  0  0  0  0  0  0
    5.5419  -46.0619  -21.1654 N   0  0  0  0  0  0  0  0  0  0  0  0
    5.1218  -47.0390  -22.0538 C   0  0  0  0  0  0  0  0  0  0  0  0
    5.3591  -48.2273  -21.7431 O   0  0  0  0  0  0  0  0  0  0  0  0
    4.4031  -46.8560  -23.3809 C   0  0  0  0  0  0  0  0  0  0  0  0
    3.3792  -47.8134  -23.4852 N   0  0  0  0  0  0  0  0  0  0  0  0
    2.9989  -48.9150  -24.2082 C   0  0  0  0  0  0  0  0  0  0  0  0
    2.0688  -48.7475  -25.1110 O   0  0  0  0  0  0  0  0  0  0  0  0
    3.4285  -50.3516  -24.1930 C   0  0  0  0  0  0  0  0  0  0  0  0
    2.4604  -51.1327  -23.4014 N   0  0  0  0  0  0  0  0  0  0  0  0
    2.6060  -51.9040  -22.2732 C   0  0  0  0  0  0  0  0  0  0  0  0
    2.2919  -53.1559  -22.3939 O   0  0  0  0  0  0  0  0  0  0  0  0
    3.0680  -51.5294  -20.9148 C   0  0  0  0  0  0  0  0  0  0  0  0
    2.5003  -50.3105  -20.4112 N   0  0  0  0  0  0  0  0  0  0  0  0
    1.2975  -50.2362  -19.6449 C   0  0  0  0  0  0  0  0  0  0  0  0
    0.6294  -49.1854  -19.7553 O   0  0  0  0  0  0  0  0  0  0  0  0
    1.0102  -52.0842  -16.8512 H   0  0  0  0  0  0  0  0  0  0  0  0
    0.8008  -48.6275  -16.3598 H   0  0  0  0  0  0  0  0  0  0  0  0
    1.9588  -44.9961  -18.5143 H   0  0  0  0  0  0  0  0  0  0  0  0
    2.6003  -47.5615  -22.7130 H   0  0  0  0  0  0  0  0  0  0  0  0
    1.4752  -51.0559  -23.8307 H   0  0  0  0  0  0  0  0  0  0  0  0
    3.0018  -49.4347  -20.6189 H   0  0  0  0  0  0  0  0  0  0  0  0
   -0.6644  -51.2436  -18.4352 C   0  0  0  0  0  0  0  0  0  0  0  0
   -1.0649  -52.4914  -17.7100 C   0  0  0  0  0  0  0  0  0  0  0  0
   -1.7662  -53.4438  -18.6717 C   0  0  0  0  0  0  0  0  0  0  0  0
   -1.4497  -53.0369  -20.0155 N   0  0  0  0  0  0  0  0  0  0  0  0
   -1.8381  -52.1623  -20.3918 H   0  0  0  0  0  0  0  0  0  0  0  0
    0.4103  -54.5791  -20.0257 N   0  0  0  0  0  0  0  0  0  0  0  0
   -0.5867  -53.8789  -20.8152 C   0  0  0  0  0  0  0  0  0  0  0  0
   -0.6996  -53.9728  -22.0044 N   0  0  0  0  0  0  0  0  0  0  0  0
    0.5514  -55.5687  -20.2145 H   0  0  0  0  0  0  0  0  0  0  0  0
    0.9161  -54.0379  -19.3210 H   0  0  0  0  0  0  0  0  0  0  0  0
   -0.9710  -53.8950  -22.9340 H   0  0  0  0  0  0  0  0  0  0  0  0
    3.0542  -49.3942  -14.8707 C   0  0  0  0  0  0  0  0  0  0  0  0
    1.9635  -48.6848  -14.1188 C   0  0  0  0  0  0  0  0  0  0  0  0
    0.6970  -49.1913  -14.0430 C   0  0  0  0  0  0  0  0  0  0  0  0
   -0.2854  -48.5218  -13.3572 C   0  0  0  0  0  0  0  0  0  0  0  0
    0.0107  -47.3176  -12.7339 C   0  0  0  0  0  0  0  0  0  0  0  0
    1.2844  -46.7931  -12.8010 C   0  0  0  0  0  0  0  0  0  0  0  0
    2.2418  -47.4902  -13.4957 C   0  0  0  0  0  0  0  0  0  0  0  0
    4.1047  -45.9747  -16.7565 C   0  0  0  0  0  0  0  0  0  0  0  0
    5.5148  -46.4064  -16.7962 C   0  0  0  0  0  0  0  0  0  0  0  0
    5.9799  -47.2227  -17.8104 C   0  0  0  0  0  0  0  0  0  0  0  0
    7.2848  -47.6575  -17.8652 C   0  0  0  0  0  0  0  0  0  0  0  0
    8.1865  -47.2851  -16.8920 C   0  0  0  0  0  0  0  0  0  0  0  0
    7.7486  -46.4725  -15.8723 C   0  0  0  0  0  0  0  0  0  0  0  0
    6.4241  -46.0459  -15.8374 C   0  0  0  0  0  0  0  0  0  0  0  0
    5.4909  -46.7327  -24.3717 C   0  0  0  0  0  0  0  0  0  0  0  0
    5.1791  -46.0691  -25.6484 C   0  0  0  0  0  0  0  0  0  0  0  0
    5.3397  -44.7305  -25.8501 C   0  0  0  0  0  0  0  0  0  0  0  0
    5.0655  -44.1270  -27.0514 C   0  0  0  0  0  0  0  0  0  0  0  0
    4.6121  -44.8734  -28.1012 C   0  0  0  0  0  0  0  0  0  0  0  0
    4.4472  -46.2329  -27.9000 C   0  0  0  0  0  0  0  0  0  0  0  0
    4.7195  -46.8397  -26.7056 C   0  0  0  0  0  0  0  0  0  0  0  0
    3.3143  -50.8261  -25.6556 C   0  0  0  0  0  0  0  0  0  0  0  0
    2.2483  -51.7755  -25.9204 C   0  0  0  0  0  0  0  0  0  0  0  0
    1.0558  -51.3074  -26.4807 C   0  0  0  0  0  0  0  0  0  0  0  0
   -0.0073  -52.1333  -26.7370 C   0  0  0  0  0  0  0  0  0  0  0  0
    0.0661  -53.4738  -26.4449 C   0  0  0  0  0  0  0  0  0  0  0  0
    1.2453  -53.9478  -25.8879 C   0  0  0  0  0  0  0  0  0  0  0  0
    2.3126  -53.1038  -25.6341 C   0  0  0  0  0  0  0  0  0  0  0  0
    4.5412  -51.6690  -20.8209 C   0  0  0  0  0  0  0  0  0  0  0  0
    5.1167  -51.9719  -22.1539 C   0  0  0  0  0  0  0  0  0  0  0  0
    4.9333  -53.1106  -22.8639 C   0  0  0  0  0  0  0  0  0  0  0  0
    5.5130  -53.3060  -24.1057 C   0  0  0  0  0  0  0  0  0  0  0  0
    6.3023  -52.3198  -24.6477 C   0  0  0  0  0  0  0  0  0  0  0  0
    6.5214  -51.1336  -23.9605 C   0  0  0  0  0  0  0  0  0  0  0  0
    5.9235  -50.9831  -22.7257 C   0  0  0  0  0  0  0  0  0  0  0  0
 43 44  1  0  0  0
 44 45  2  0  0  0
 44 41  1  0  0  0
 41 40  1  0  0  0
 40 39  1  0  0  0
 39 38  1  0  0  0
 38  1  1  0  0  0
  1  2  1  0  0  0
  2  3  1  0  0  0
  3  4  2  0  0  0
  3  5  1  0  0  0
  5 49  1  0  0  0
 49 50  1  0  0  0
 50 51  2  0  0  0
 51 52  1  0  0  0
 52 53  2  0  0  0
 53 54  1  0  0  0
 54 55  2  0  0  0
  5  6  1  0  0  0
  6  7  1  0  0  0
  7  8  2  0  0  0
  7  9  1  0  0  0
  9 56  1  0  0  0
 56 57  1  0  0  0
 57 58  2  0  0  0
 58 59  1  0  0  0
 59 60  2  0  0  0
 60 61  1  0  0  0
 61 62  2  0  0  0
  9 10  1  0  0  0
 10 11  1  0  0  0
 11 12  2  0  0  0
 11 13  1  0  0  0
 13 14  1  0  0  0
 14 15  1  0  0  0
 15 16  1  0  0  0
 16 17  1  0  0  0
 17 18  1  0  0  0
 18 19  2  0  0  0
 18 20  1  0  0  0
 20 63  1  0  0  0
 63 64  1  0  0  0
 64 65  2  0  0  0
 65 66  1  0  0  0
 66 67  2  0  0  0
 67 68  1  0  0  0
 68 69  2  0  0  0
 20 21  1  0  0  0
 21 22  1  0  0  0
 22 23  2  0  0  0
 22 24  1  0  0  0
 24 70  1  0  0  0
 70 71  1  0  0  0
 71 72  2  0  0  0
 72 73  1  0  0  0
 73 74  2  0  0  0
 74 75  1  0  0  0
 75 76  2  0  0  0
 24 25  1  0  0  0
 25 26  1  0  0  0
 26 27  2  0  0  0
 26 28  1  0  0  0
 28 77  1  0  0  0
 77 78  1  0  0  0
 78 79  2  0  0  0
 79 80  1  0  0  0
 80 81  2  0  0  0
 81 82  1  0  0  0
 82 83  2  0  0  0
 28 29  1  0  0  0
 29 30  1  0  0  0
 30 31  2  0  0  0
 30  1  1  0  0  0
 55 50  1  0  0  0
 62 57  1  0  0  0
 17 13  1  0  0  0
 69 64  1  0  0  0
 76 71  1  0  0  0
 83 78  1  0  0  0
 43 46  1  0  0  0
 43 47  1  0  0  0
 45 48  1  0  0  0
 41 42  1  0  0  0
  2 32  1  0  0  0
  6 33  1  0  0  0
 10 34  1  0  0  0
 21 35  1  0  0  0
 25 36  1  0  0  0
 29 37  1  0  0  0
M  END
> <minimizedAffinity>
-1.20905

> <CNNscore>
0.3695131540

> <CNNaffinity>
7.6641411781

> <CNN_VS>
2.8320009708

> <CNNaffinity_variance>
1.9022327662

$$$$
[H]c1nn([H])c([H])c1-c1c([H])nn2c([H])c(-c3c([H])c([H])c(N4C([H])([H])C([H])([H])N([H])C([H])([H])C4([H])[H])c([H])c3[H])c([H])nc12


 28 32  0  0  0  0  0  0  0  0999 V2000
    0.1113  -52.0228  -20.6242 C   0  0  0  0  0  0  0  0  0  0  0  0
    0.6602  -51.5626  -21.7971 C   0  0  0  0  0  0  0  0  0  0  0  0
    0.4670  -52.2368  -22.9468 N   0  0  0  0  0  0  0  0  0  0  0  0
   -0.2777  -53.3697  -22.9070 C   0  0  0  0  0  0  0  0  0  0  0  0
   -0.6124  -54.2263  -23.9512 C   0  0  0  0  0  0  0  0  0  0  0  0
   -1.3773  -55.2087  -23.3588 C   0  0  0  0  0  0  0  0  0  0  0  0
   -1.4983  -54.9638  -22.0420 N   0  0  0  0  0  0  0  0  0  0  0  0
   -0.8242  -53.8391  -21.7731 N   0  0  0  0  0  0  0  0  0  0  0  0
   -0.6329  -53.1678  -20.6233 C   0  0  0  0  0  0  0  0  0  0  0  0
    0.6490  -49.9822  -16.9177 C   0  0  0  0  0  0  0  0  0  0  0  0
   -0.0396  -51.1761  -16.9539 C   0  0  0  0  0  0  0  0  0  0  0  0
   -0.1915  -51.8045  -18.1742 C   0  0  0  0  0  0  0  0  0  0  0  0
    0.3037  -51.3086  -19.3521 C   0  0  0  0  0  0  0  0  0  0  0  0
    0.9891  -50.1176  -19.3073 C   0  0  0  0  0  0  0  0  0  0  0  0
    1.1608  -49.4589  -18.0994 C   0  0  0  0  0  0  0  0  0  0  0  0
    0.1597  -49.0336  -13.3056 C   0  0  0  0  0  0  0  0  0  0  0  0
    0.3380  -49.9428  -14.4788 C   0  0  0  0  0  0  0  0  0  0  0  0
    0.8144  -49.3154  -15.6781 N   0  0  0  0  0  0  0  0  0  0  0  0
    1.4417  -48.0495  -15.6007 C   0  0  0  0  0  0  0  0  0  0  0  0
    2.0075  -47.7983  -14.2555 C   0  0  0  0  0  0  0  0  0  0  0  0
    1.1510  -48.0322  -13.1518 N   0  0  0  0  0  0  0  0  0  0  0  0
    0.7061  -47.1528  -12.7679 H   0  0  0  0  0  0  0  0  0  0  0  0
   -0.2220  -54.0845  -25.3497 C   0  0  0  0  0  0  0  0  0  0  0  0
    0.1354  -55.1069  -26.2321 C   0  0  0  0  0  0  0  0  0  0  0  0
    0.4263  -54.5562  -27.4255 N   0  0  0  0  0  0  0  0  0  0  0  0
    0.2722  -53.2265  -27.3499 N   0  0  0  0  0  0  0  0  0  0  0  0
   -0.1194  -52.9355  -26.0983 C   0  0  0  0  0  0  0  0  0  0  0  0
    0.4241  -52.5326  -28.1122 H   0  0  0  0  0  0  0  0  0  0  0  0
 16 17  1  0  0  0
 17 18  1  0  0  0
 18 19  1  0  0  0
 19 20  1  0  0  0
 20 21  1  0  0  0
 18 10  1  0  0  0
 10 11  2  0  0  0
 11 12  1  0  0  0
 12 13  2  0  0  0
 13 14  1  0  0  0
 14 15  2  0  0  0
 13  1  1  0  0  0
  1  2  1  0  0  0
  2  3  2  0  0  0
  3  4  1  0  0  0
  4  5  2  0  0  0
  5  6  1  0  0  0
  6  7  2  0  0  0
  7  8  1  0  0  0
  8  9  1  0  0  0
  5 23  1  0  0  0
 23 24  1  0  0  0
 24 25  2  0  0  0
 25 26  1  0  0  0
 26 27  1  0  0  0
 21 16  1  0  0  0
 15 10  1  0  0  0
  9  1  2  0  0  0
 27 23  2  0  0  0
  8  4  1  0  0  0
 21 22  1  0  0  0
 26 28  1  0  0  0
M  END
> <minimizedAffinity>
-7.90149

> <CNNscore>
0.8508083820

> <CNNaffinity>
6.5665602684

> <CNN_VS>
5.5868844986

> <CNNaffinity_variance>
0.1210301667

$$$$
[H]c1nn([H])c([H])c1-c1c([H])nn2c([H])c(-c3c([H])c([H])c(N4C([H])([H])C([H])([H])N([H])C([H])([H])C4([H])[H])c([H])c3[H])c([H])nc12


 28 32  0  0  0  0  0  0  0  0999 V2000
   -0.0523  -52.7503  -22.1934 C   0  0  0  0  0  0  0  0  0  0  0  0
    0.3264  -51.9042  -23.2080 C   0  0  0  0  0  0  0  0  0  0  0  0
    0.3226  -52.3320  -24.4849 N   0  0  0  0  0  0  0  0  0  0  0  0
   -0.0627  -53.6090  -24.7309 C   0  0  0  0  0  0  0  0  0  0  0  0
   -0.1482  -54.2707  -25.9520 C   0  0  0  0  0  0  0  0  0  0  0  0
   -0.5897  -55.5360  -25.6278 C   0  0  0  0  0  0  0  0  0  0  0  0
   -0.7607  -55.6349  -24.2975 N   0  0  0  0  0  0  0  0  0  0  0  0
   -0.4370  -54.4544  -23.7562 N   0  0  0  0  0  0  0  0  0  0  0  0
   -0.4341  -54.0298  -22.4798 C   0  0  0  0  0  0  0  0  0  0  0  0
   -0.0927  -51.5154  -18.1111 C   0  0  0  0  0  0  0  0  0  0  0  0
   -0.6915  -52.7018  -18.4786 C   0  0  0  0  0  0  0  0  0  0  0  0
   -0.6562  -53.0649  -19.8105 C   0  0  0  0  0  0  0  0  0  0  0  0
   -0.0594  -52.3126  -20.7885 C   0  0  0  0  0  0  0  0  0  0  0  0
    0.5354  -51.1311  -20.4137 C   0  0  0  0  0  0  0  0  0  0  0  0
    0.5192  -50.7350  -19.0851 C   0  0  0  0  0  0  0  0  0  0  0  0
   -1.4223  -50.5283  -14.7282 C   0  0  0  0  0  0  0  0  0  0  0  0
   -1.3144  -51.3304  -15.9851 C   0  0  0  0  0  0  0  0  0  0  0  0
   -0.1195  -51.1183  -16.7510 N   0  0  0  0  0  0  0  0  0  0  0  0
    1.0066  -50.5229  -16.1352 C   0  0  0  0  0  0  0  0  0  0  0  0
    0.9878  -50.7021  -14.6654 C   0  0  0  0  0  0  0  0  0  0  0  0
   -0.2170  -50.3679  -13.9996 N   0  0  0  0  0  0  0  0  0  0  0  0
   -0.2013  -49.4097  -13.5522 H   0  0  0  0  0  0  0  0  0  0  0  0
    0.1682  -53.7163  -27.2639 C   0  0  0  0  0  0  0  0  0  0  0  0
   -0.6613  -52.9318  -28.0690 C   0  0  0  0  0  0  0  0  0  0  0  0
    0.0060  -52.6272  -29.1976 N   0  0  0  0  0  0  0  0  0  0  0  0
    1.2265  -53.1803  -29.1544 N   0  0  0  0  0  0  0  0  0  0  0  0
    1.3305  -53.8396  -27.9885 C   0  0  0  0  0  0  0  0  0  0  0  0
    1.9694  -53.1197  -29.8825 H   0  0  0  0  0  0  0  0  0  0  0  0
 16 17  1  0  0  0
 17 18  1  0  0  0
 18 19  1  0  0  0
 19 20  1  0  0  0
 20 21  1  0  0  0
 18 10  1  0  0  0
 10 11  2  0  0  0
 11 12  1  0  0  0
 12 13  2  0  0  0
 13 14  1  0  0  0
 14 15  2  0  0  0
 13  1  1  0  0  0
  1  2  1  0  0  0
  2  3  2  0  0  0
  3  4  1  0  0  0
  4  5  2  0  0  0
  5  6  1  0  0  0
  6  7  2  0  0  0
  7  8  1  0  0  0
  8  9  1  0  0  0
  5 23  1  0  0  0
 23 24  1  0  0  0
 24 25  2  0  0  0
 25 26  1  0  0  0
 26 27  1  0  0  0
 21 16  1  0  0  0
 15 10  1  0  0  0
  9  1  2  0  0  0
 27 23  2  0  0  0
  8  4  1  0  0  0
 21 22  1  0  0  0
 26 28  1  0  0  0
M  END
> <minimizedAffinity>
-7.98514

> <CNNscore>
0.7057344913

> <CNNaffinity>
6.6778364182

> <CNN_VS>
4.7127795219

> <CNNaffinity_variance>
0.0808702260

$$$$
[H]c1nn([H])c([H])c1-c1c([H])nn2c([H])c(-c3c([H])c([H])c(N4C([H])([H])C([H])([H])N([H])C([H])([H])C4([H])[H])c([H])c3[H])c([H])nc12


 28 32  0  0  0  0  0  0  0  0999 V2000
    0.5151  -51.6133  -22.1271 C   0  0  0  0  0  0  0  0  0  0  0  0
    0.9785  -51.0102  -23.2717 C   0  0  0  0  0  0  0  0  0  0  0  0
    0.8294  -51.6155  -24.4654 N   0  0  0  0  0  0  0  0  0  0  0  0
    0.2145  -52.8241  -24.4978 C   0  0  0  0  0  0  0  0  0  0  0  0
   -0.0524  -53.6337  -25.5975 C   0  0  0  0  0  0  0  0  0  0  0  0
   -0.6889  -54.7359  -25.0672 C   0  0  0  0  0  0  0  0  0  0  0  0
   -0.8005  -54.6031  -23.7336 N   0  0  0  0  0  0  0  0  0  0  0  0
   -0.2466  -53.4332  -23.3928 N   0  0  0  0  0  0  0  0  0  0  0  0
   -0.0990  -52.8309  -22.1991 C   0  0  0  0  0  0  0  0  0  0  0  0
    0.9579  -49.7376  -18.3222 C   0  0  0  0  0  0  0  0  0  0  0  0
    1.3836  -49.0913  -19.4633 C   0  0  0  0  0  0  0  0  0  0  0  0
    1.2221  -49.7334  -20.6752 C   0  0  0  0  0  0  0  0  0  0  0  0
    0.6623  -50.9774  -20.8082 C   0  0  0  0  0  0  0  0  0  0  0  0
    0.2404  -51.6150  -19.6656 C   0  0  0  0  0  0  0  0  0  0  0  0
    0.3868  -51.0002  -18.4315 C   0  0  0  0  0  0  0  0  0  0  0  0
    2.6107  -48.1993  -15.3075 C   0  0  0  0  0  0  0  0  0  0  0  0
    2.3661  -48.4661  -16.7580 C   0  0  0  0  0  0  0  0  0  0  0  0
    1.1169  -49.1015  -17.0658 N   0  0  0  0  0  0  0  0  0  0  0  0
    0.0697  -49.0777  -16.1146 C   0  0  0  0  0  0  0  0  0  0  0  0
    0.2107  -47.9454  -15.1707 C   0  0  0  0  0  0  0  0  0  0  0  0
    1.4798  -47.7777  -14.5641 N   0  0  0  0  0  0  0  0  0  0  0  0
    1.5358  -48.1724  -13.5845 H   0  0  0  0  0  0  0  0  0  0  0  0
    0.2824  -53.3472  -26.9883 C   0  0  0  0  0  0  0  0  0  0  0  0
   -0.5609  -52.8103  -27.9641 C   0  0  0  0  0  0  0  0  0  0  0  0
    0.1321  -52.7039  -29.1132 N   0  0  0  0  0  0  0  0  0  0  0  0
    1.3822  -53.1481  -28.9201 N   0  0  0  0  0  0  0  0  0  0  0  0
    1.4792  -53.5381  -27.6382 C   0  0  0  0  0  0  0  0  0  0  0  0
    2.1493  -53.1900  -29.6240 H   0  0  0  0  0  0  0  0  0  0  0  0
 16 17  1  0  0  0
 17 18  1  0  0  0
 18 19  1  0  0  0
 19 20  1  0  0  0
 20 21  1  0  0  0
 18 10  1  0  0  0
 10 11  2  0  0  0
 11 12  1  0  0  0
 12 13  2  0  0  0
 13 14  1  0  0  0
 14 15  2  0  0  0
 13  1  1  0  0  0
  1  2  1  0  0  0
  2  3  2  0  0  0
  3  4  1  0  0  0
  4  5  2  0  0  0
  5  6  1  0  0  0
  6  7  2  0  0  0
  7  8  1  0  0  0
  8  9  1  0  0  0
  5 23  1  0  0  0
 23 24  1  0  0  0
 24 25  2  0  0  0
 25 26  1  0  0  0
 26 27  1  0  0  0
 21 16  1  0  0  0
 15 10  1  0  0  0
  9  1  2  0  0  0
 27 23  2  0  0  0
  8  4  1  0  0  0
 21 22  1  0  0  0
 26 28  1  0  0  0
M  END
> <minimizedAffinity>
-7.60435

> <CNNscore>
0.5804344416

> <CNNaffinity>
6.6317720413

> <CNN_VS>
3.8493089676

> <CNNaffinity_variance>
0.4274687171

$$$$
[H]c1nn([H])c([H])c1-c1c([H])nn2c([H])c(-c3c([H])c([H])c(N4C([H])([H])C([H])([H])N([H])C([H])([H])C4([H])[H])c([H])c3[H])c([H])nc12


 28 32  0  0  0  0  0  0  0  0999 V2000
    2.6594  -49.9892  -24.9172 C   0  0  0  0  0  0  0  0  0  0  0  0
    1.9199  -50.9798  -25.5177 C   0  0  0  0  0  0  0  0  0  0  0  0
    1.1853  -51.8255  -24.7702 N   0  0  0  0  0  0  0  0  0  0  0  0
    1.2007  -51.6676  -23.4232 C   0  0  0  0  0  0  0  0  0  0  0  0
    0.5312  -52.4081  -22.4539 C   0  0  0  0  0  0  0  0  0  0  0  0
    0.8980  -51.8241  -21.2600 C   0  0  0  0  0  0  0  0  0  0  0  0
    1.7351  -50.7970  -21.4903 N   0  0  0  0  0  0  0  0  0  0  0  0
    1.9155  -50.7072  -22.8135 N   0  0  0  0  0  0  0  0  0  0  0  0
    2.6501  -49.8611  -23.5577 C   0  0  0  0  0  0  0  0  0  0  0  0
    5.0202  -47.2434  -27.1707 C   0  0  0  0  0  0  0  0  0  0  0  0
    4.8257  -47.0395  -25.8210 C   0  0  0  0  0  0  0  0  0  0  0  0
    4.0547  -47.9520  -25.1281 C   0  0  0  0  0  0  0  0  0  0  0  0
    3.4715  -49.0493  -25.7062 C   0  0  0  0  0  0  0  0  0  0  0  0
    3.6703  -49.2453  -27.0524 C   0  0  0  0  0  0  0  0  0  0  0  0
    4.4388  -48.3494  -27.7797 C   0  0  0  0  0  0  0  0  0  0  0  0
    6.8327  -45.6271  -30.0498 C   0  0  0  0  0  0  0  0  0  0  0  0
    5.7053  -46.3017  -29.3364 C   0  0  0  0  0  0  0  0  0  0  0  0
    5.8037  -46.3185  -27.9050 N   0  0  0  0  0  0  0  0  0  0  0  0
    6.6746  -45.4121  -27.2555 C   0  0  0  0  0  0  0  0  0  0  0  0
    6.9462  -44.2184  -28.0888 C   0  0  0  0  0  0  0  0  0  0  0  0
    7.3339  -44.4547  -29.4305 N   0  0  0  0  0  0  0  0  0  0  0  0
    8.3783  -44.3939  -29.5859 H   0  0  0  0  0  0  0  0  0  0  0  0
   -0.3539  -53.5443  -22.6870 C   0  0  0  0  0  0  0  0  0  0  0  0
   -1.1002  -54.2400  -21.7328 C   0  0  0  0  0  0  0  0  0  0  0  0
   -1.7825  -55.2181  -22.3571 N   0  0  0  0  0  0  0  0  0  0  0  0
   -1.5085  -55.1825  -23.6690 N   0  0  0  0  0  0  0  0  0  0  0  0
   -0.6460  -54.1732  -23.8745 C   0  0  0  0  0  0  0  0  0  0  0  0
   -1.8863  -55.8140  -24.4066 H   0  0  0  0  0  0  0  0  0  0  0  0
 16 17  1  0  0  0
 17 18  1  0  0  0
 18 19  1  0  0  0
 19 20  1  0  0  0
 20 21  1  0  0  0
 18 10  1  0  0  0
 10 11  2  0  0  0
 11 12  1  0  0  0
 12 13  2  0  0  0
 13 14  1  0  0  0
 14 15  2  0  0  0
 13  1  1  0  0  0
  1  2  1  0  0  0
  2  3  2  0  0  0
  3  4  1  0  0  0
  4  5  2  0  0  0
  5  6  1  0  0  0
  6  7  2  0  0  0
  7  8  1  0  0  0
  8  9  1  0  0  0
  5 23  1  0  0  0
 23 24  1  0  0  0
 24 25  2  0  0  0
 25 26  1  0  0  0
 26 27  1  0  0  0
 21 16  1  0  0  0
 15 10  1  0  0  0
  9  1  2  0  0  0
 27 23  2  0  0  0
  8  4  1  0  0  0
 21 22  1  0  0  0
 26 28  1  0  0  0
M  END
> <minimizedAffinity>
-6.33196

> <CNNscore>
0.5579044819

> <CNNaffinity>
6.1224546432

> <CNN_VS>
3.4157447815

> <CNNaffinity_variance>
0.5178491473

$$$$
[H]c1nn([H])c([H])c1-c1c([H])nn2c([H])c(-c3c([H])c([H])c(N4C([H])([H])C([H])([H])N([H])C([H])([H])C4([H])[H])c([H])c3[H])c([H])nc12


 28 32  0  0  0  0  0  0  0  0999 V2000
    0.2109  -52.5164  -21.2196 C   0  0  0  0  0  0  0  0  0  0  0  0
    1.2443  -51.8813  -21.8654 C   0  0  0  0  0  0  0  0  0  0  0  0
    1.4772  -52.1192  -23.1703 N   0  0  0  0  0  0  0  0  0  0  0  0
    0.6674  -52.9954  -23.8155 C   0  0  0  0  0  0  0  0  0  0  0  0
    0.7090  -53.3983  -25.1467 C   0  0  0  0  0  0  0  0  0  0  0  0
   -0.3333  -54.2927  -25.2684 C   0  0  0  0  0  0  0  0  0  0  0  0
   -0.9652  -54.4234  -24.0885 N   0  0  0  0  0  0  0  0  0  0  0  0
   -0.3488  -53.6283  -23.2058 N   0  0  0  0  0  0  0  0  0  0  0  0
   -0.5836  -53.3924  -21.9025 C   0  0  0  0  0  0  0  0  0  0  0  0
   -0.5779  -51.7905  -17.0914 C   0  0  0  0  0  0  0  0  0  0  0  0
    0.2737  -50.9589  -17.7873 C   0  0  0  0  0  0  0  0  0  0  0  0
    0.5024  -51.2290  -19.1222 C   0  0  0  0  0  0  0  0  0  0  0  0
   -0.0695  -52.2772  -19.7950 C   0  0  0  0  0  0  0  0  0  0  0  0
   -0.9174  -53.1016  -19.0938 C   0  0  0  0  0  0  0  0  0  0  0  0
   -1.1701  -52.8606  -17.7520 C   0  0  0  0  0  0  0  0  0  0  0  0
   -2.1584  -50.3998  -13.9682 C   0  0  0  0  0  0  0  0  0  0  0  0
   -2.1077  -51.0304  -15.3227 C   0  0  0  0  0  0  0  0  0  0  0  0
   -0.8251  -51.5372  -15.7191 N   0  0  0  0  0  0  0  0  0  0  0  0
    0.1636  -51.7776  -14.7360 C   0  0  0  0  0  0  0  0  0  0  0  0
   -0.4333  -51.9942  -13.3981 C   0  0  0  0  0  0  0  0  0  0  0  0
   -1.3876  -51.0408  -12.9660 N   0  0  0  0  0  0  0  0  0  0  0  0
   -0.9911  -50.3136  -12.3083 H   0  0  0  0  0  0  0  0  0  0  0  0
    1.6596  -52.9522  -26.1596 C   0  0  0  0  0  0  0  0  0  0  0  0
    1.3687  -52.5249  -27.4574 C   0  0  0  0  0  0  0  0  0  0  0  0
    2.5241  -52.2011  -28.0675 N   0  0  0  0  0  0  0  0  0  0  0  0
    3.5441  -52.4009  -27.2207 N   0  0  0  0  0  0  0  0  0  0  0  0
    3.0281  -52.8547  -26.0663 C   0  0  0  0  0  0  0  0  0  0  0  0
    4.5563  -52.2392  -27.4078 H   0  0  0  0  0  0  0  0  0  0  0  0
 16 17  1  0  0  0
 17 18  1  0  0  0
 18 19  1  0  0  0
 19 20  1  0  0  0
 20 21  1  0  0  0
 18 10  1  0  0  0
 10 11  2  0  0  0
 11 12  1  0  0  0
 12 13  2  0  0  0
 13 14  1  0  0  0
 14 15  2  0  0  0
 13  1  1  0  0  0
  1  2  1  0  0  0
  2  3  2  0  0  0
  3  4  1  0  0  0
  4  5  2  0  0  0
  5  6  1  0  0  0
  6  7  2  0  0  0
  7  8  1  0  0  0
  8  9  1  0  0  0
  5 23  1  0  0  0
 23 24  1  0  0  0
 24 25  2  0  0  0
 25 26  1  0  0  0
 26 27  1  0  0  0
 21 16  1  0  0  0
 15 10  1  0  0  0
  9  1  2  0  0  0
 27 23  2  0  0  0
  8  4  1  0  0  0
 21 22  1  0  0  0
 26 28  1  0  0  0
M  END
> <minimizedAffinity>
-8.09255

> <CNNscore>
0.5408662558

> <CNNaffinity>
6.3512167931

> <CNN_VS>
3.4351587296

> <CNNaffinity_variance>
0.0808435977

$$$$
[H]c1nn([H])c([H])c1-c1c([H])nn2c([H])c(-c3c([H])c([H])c(N4C([H])([H])C([H])([H])N([H])C([H])([H])C4([H])[H])c([H])c3[H])c([H])nc12


 28 32  0  0  0  0  0  0  0  0999 V2000
    1.7802  -52.2455  -26.7593 C   0  0  0  0  0  0  0  0  0  0  0  0
    2.2501  -52.5439  -28.0158 C   0  0  0  0  0  0  0  0  0  0  0  0
    1.3984  -52.9319  -28.9841 N   0  0  0  0  0  0  0  0  0  0  0  0
    0.0792  -53.0166  -28.6800 C   0  0  0  0  0  0  0  0  0  0  0  0
   -0.9796  -53.3892  -29.5022 C   0  0  0  0  0  0  0  0  0  0  0  0
   -2.0919  -53.3019  -28.6920 C   0  0  0  0  0  0  0  0  0  0  0  0
   -1.7310  -52.9026  -27.4596 N   0  0  0  0  0  0  0  0  0  0  0  0
   -0.4037  -52.7302  -27.4594 N   0  0  0  0  0  0  0  0  0  0  0  0
    0.4448  -52.3425  -26.4904 C   0  0  0  0  0  0  0  0  0  0  0  0
    4.3994  -51.0437  -23.6150 C   0  0  0  0  0  0  0  0  0  0  0  0
    3.8498  -52.3081  -23.6091 C   0  0  0  0  0  0  0  0  0  0  0  0
    3.0067  -52.6575  -24.6456 C   0  0  0  0  0  0  0  0  0  0  0  0
    2.6851  -51.8183  -25.6804 C   0  0  0  0  0  0  0  0  0  0  0  0
    3.2374  -50.5593  -25.6788 C   0  0  0  0  0  0  0  0  0  0  0  0
    4.0883  -50.1743  -24.6541 C   0  0  0  0  0  0  0  0  0  0  0  0
    7.4784  -50.8053  -21.4587 C   0  0  0  0  0  0  0  0  0  0  0  0
    6.6803  -50.8245  -22.7227 C   0  0  0  0  0  0  0  0  0  0  0  0
    5.2642  -50.6595  -22.5600 N   0  0  0  0  0  0  0  0  0  0  0  0
    4.7597  -50.1145  -21.3557 C   0  0  0  0  0  0  0  0  0  0  0  0
    5.7734  -49.2901  -20.6588 C   0  0  0  0  0  0  0  0  0  0  0  0
    7.0526  -49.8718  -20.4807 N   0  0  0  0  0  0  0  0  0  0  0  0
    7.2010  -50.2803  -19.5164 H   0  0  0  0  0  0  0  0  0  0  0  0
   -0.8936  -53.7798  -30.9052 C   0  0  0  0  0  0  0  0  0  0  0  0
   -1.8232  -54.5307  -31.6289 C   0  0  0  0  0  0  0  0  0  0  0  0
   -1.3694  -54.6697  -32.8885 N   0  0  0  0  0  0  0  0  0  0  0  0
   -0.1905  -54.0422  -33.0071 N   0  0  0  0  0  0  0  0  0  0  0  0
    0.1022  -53.5027  -31.8122 C   0  0  0  0  0  0  0  0  0  0  0  0
    0.4023  -53.9760  -33.8614 H   0  0  0  0  0  0  0  0  0  0  0  0
 16 17  1  0  0  0
 17 18  1  0  0  0
 18 19  1  0  0  0
 19 20  1  0  0  0
 20 21  1  0  0  0
 18 10  1  0  0  0
 10 11  2  0  0  0
 11 12  1  0  0  0
 12 13  2  0  0  0
 13 14  1  0  0  0
 14 15  2  0  0  0
 13  1  1  0  0  0
  1  2  1  0  0  0
  2  3  2  0  0  0
  3  4  1  0  0  0
  4  5  2  0  0  0
  5  6  1  0  0  0
  6  7  2  0  0  0
  7  8  1  0  0  0
  8  9  1  0  0  0
  5 23  1  0  0  0
 23 24  1  0  0  0
 24 25  2  0  0  0
 25 26  1  0  0  0
 26 27  1  0  0  0
 21 16  1  0  0  0
 15 10  1  0  0  0
  9  1  2  0  0  0
 27 23  2  0  0  0
  8  4  1  0  0  0
 21 22  1  0  0  0
 26 28  1  0  0  0
M  END
> <minimizedAffinity>
6.29334

> <CNNscore>
0.4741016328

> <CNNaffinity>
5.9229245186

> <CNN_VS>
2.8080682755

> <CNNaffinity_variance>
0.4701044559

$$$$
[H]c1nn([H])c([H])c1-c1c([H])nn2c([H])c(-c3c([H])c([H])c(N4C([H])([H])C([H])([H])N([H])C([H])([H])C4([H])[H])c([H])c3[H])c([H])nc12


 28 32  0  0  0  0  0  0  0  0999 V2000
    3.1318  -50.3225  -23.9789 C   0  0  0  0  0  0  0  0  0  0  0  0
    1.9167  -50.9318  -24.1810 C   0  0  0  0  0  0  0  0  0  0  0  0
    1.3122  -51.5903  -23.1738 N   0  0  0  0  0  0  0  0  0  0  0  0
    1.9359  -51.6304  -21.9700 C   0  0  0  0  0  0  0  0  0  0  0  0
    1.5142  -52.2414  -20.7931 C   0  0  0  0  0  0  0  0  0  0  0  0
    2.5189  -51.9742  -19.8874 C   0  0  0  0  0  0  0  0  0  0  0  0
    3.4861  -51.2489  -20.4765 N   0  0  0  0  0  0  0  0  0  0  0  0
    3.1234  -51.0427  -21.7483 N   0  0  0  0  0  0  0  0  0  0  0  0
    3.7295  -50.3843  -22.7526 C   0  0  0  0  0  0  0  0  0  0  0  0
    5.0861  -48.2189  -27.1327 C   0  0  0  0  0  0  0  0  0  0  0  0
    3.8180  -48.7253  -27.3238 C   0  0  0  0  0  0  0  0  0  0  0  0
    3.2207  -49.4000  -26.2773 C   0  0  0  0  0  0  0  0  0  0  0  0
    3.8172  -49.5950  -25.0589 C   0  0  0  0  0  0  0  0  0  0  0  0
    5.0817  -49.0869  -24.8765 C   0  0  0  0  0  0  0  0  0  0  0  0
    5.7119  -48.4038  -25.9054 C   0  0  0  0  0  0  0  0  0  0  0  0
    6.4539  -47.4592  -30.5589 C   0  0  0  0  0  0  0  0  0  0  0  0
    5.4591  -47.9268  -29.5456 C   0  0  0  0  0  0  0  0  0  0  0  0
    5.7224  -47.5264  -28.1930 N   0  0  0  0  0  0  0  0  0  0  0  0
    6.6055  -46.4494  -27.9442 C   0  0  0  0  0  0  0  0  0  0  0  0
    6.7063  -45.5412  -29.1095 C   0  0  0  0  0  0  0  0  0  0  0  0
    6.9509  -46.1456  -30.3671 N   0  0  0  0  0  0  0  0  0  0  0  0
    7.9648  -46.1061  -30.6653 H   0  0  0  0  0  0  0  0  0  0  0  0
    0.2774  -52.9904  -20.5985 C   0  0  0  0  0  0  0  0  0  0  0  0
   -0.2781  -53.9377  -21.4619 C   0  0  0  0  0  0  0  0  0  0  0  0
   -1.4208  -54.3930  -20.9151 N   0  0  0  0  0  0  0  0  0  0  0  0
   -1.6247  -53.7813  -19.7397 N   0  0  0  0  0  0  0  0  0  0  0  0
   -0.6021  -52.9326  -19.5429 C   0  0  0  0  0  0  0  0  0  0  0  0
   -2.4240  -53.9258  -19.0870 H   0  0  0  0  0  0  0  0  0  0  0  0
 16 17  1  0  0  0
 17 18  1  0  0  0
 18 19  1  0  0  0
 19 20  1  0  0  0
 20 21  1  0  0  0
 18 10  1  0  0  0
 10 11  2  0  0  0
 11 12  1  0  0  0
 12 13  2  0  0  0
 13 14  1  0  0  0
 14 15  2  0  0  0
 13  1  1  0  0  0
  1  2  1  0  0  0
  2  3  2  0  0  0
  3  4  1  0  0  0
  4  5  2  0  0  0
  5  6  1  0  0  0
  6  7  2  0  0  0
  7  8  1  0  0  0
  8  9  1  0  0  0
  5 23  1  0  0  0
 23 24  1  0  0  0
 24 25  2  0  0  0
 25 26  1  0  0  0
 26 27  1  0  0  0
 21 16  1  0  0  0
 15 10  1  0  0  0
  9  1  2  0  0  0
 27 23  2  0  0  0
  8  4  1  0  0  0
 21 22  1  0  0  0
 26 28  1  0  0  0
M  END
> <minimizedAffinity>
-6.28431

> <CNNscore>
0.3398864865

> <CNNaffinity>
5.8014936447

> <CNN_VS>
1.9718493223

> <CNNaffinity_variance>
0.3908335268

$$$$
[H]c1nn([H])c([H])c1-c1c([H])nn2c([H])c(-c3c([H])c([H])c(N4C([H])([H])C([H])([H])N([H])C([H])([H])C4([H])[H])c([H])c3[H])c([H])nc12


 28 32  0  0  0  0  0  0  0  0999 V2000
    4.5849  -47.9370  -25.3633 C   0  0  0  0  0  0  0  0  0  0  0  0
    3.8776  -47.0117  -26.0928 C   0  0  0  0  0  0  0  0  0  0  0  0
    4.2151  -46.7538  -27.3707 N   0  0  0  0  0  0  0  0  0  0  0  0
    5.2627  -47.4298  -27.9049 C   0  0  0  0  0  0  0  0  0  0  0  0
    5.7931  -47.3371  -29.1880 C   0  0  0  0  0  0  0  0  0  0  0  0
    6.8374  -48.2374  -29.1947 C   0  0  0  0  0  0  0  0  0  0  0  0
    6.9337  -48.8366  -27.9946 N   0  0  0  0  0  0  0  0  0  0  0  0
    5.9690  -48.3385  -27.2119 N   0  0  0  0  0  0  0  0  0  0  0  0
    5.6340  -48.5980  -25.9352 C   0  0  0  0  0  0  0  0  0  0  0  0
    3.5695  -48.8539  -21.3235 C   0  0  0  0  0  0  0  0  0  0  0  0
    3.2164  -49.7197  -22.3367 C   0  0  0  0  0  0  0  0  0  0  0  0
    3.5640  -49.3855  -23.6308 C   0  0  0  0  0  0  0  0  0  0  0  0
    4.2404  -48.2414  -23.9654 C   0  0  0  0  0  0  0  0  0  0  0  0
    4.5887  -47.3833  -22.9492 C   0  0  0  0  0  0  0  0  0  0  0  0
    4.2561  -47.6868  -21.6378 C   0  0  0  0  0  0  0  0  0  0  0  0
    2.4453  -50.8385  -18.3262 C   0  0  0  0  0  0  0  0  0  0  0  0
    3.2110  -50.5470  -19.5767 C   0  0  0  0  0  0  0  0  0  0  0  0
    3.2201  -49.1721  -19.9874 N   0  0  0  0  0  0  0  0  0  0  0  0
    2.8856  -48.1633  -19.0534 C   0  0  0  0  0  0  0  0  0  0  0  0
    3.1055  -48.6110  -17.6590 C   0  0  0  0  0  0  0  0  0  0  0  0
    2.5564  -49.8665  -17.3004 N   0  0  0  0  0  0  0  0  0  0  0  0
    1.6364  -49.7938  -16.7837 H   0  0  0  0  0  0  0  0  0  0  0  0
    5.3225  -46.4682  -30.2613 C   0  0  0  0  0  0  0  0  0  0  0  0
    4.5951  -45.2830  -30.1276 C   0  0  0  0  0  0  0  0  0  0  0  0
    4.3593  -44.7879  -31.3569 N   0  0  0  0  0  0  0  0  0  0  0  0
    4.9022  -45.6009  -32.2743 N   0  0  0  0  0  0  0  0  0  0  0  0
    5.4855  -46.6179  -31.6185 C   0  0  0  0  0  0  0  0  0  0  0  0
    4.8838  -45.4808  -33.3092 H   0  0  0  0  0  0  0  0  0  0  0  0
 16 17  1  0  0  0
 17 18  1  0  0  0
 18 19  1  0  0  0
 19 20  1  0  0  0
 20 21  1  0  0  0
 18 10  1  0  0  0
 10 11  2  0  0  0
 11 12  1  0  0  0
 12 13  2  0  0  0
 13 14  1  0  0  0
 14 15  2  0  0  0
 13  1  1  0  0  0
  1  2  1  0  0  0
  2  3  2  0  0  0
  3  4  1  0  0  0
  4  5  2  0  0  0
  5  6  1  0  0  0
  6  7  2  0  0  0
  7  8  1  0  0  0
  8  9  1  0  0  0
  5 23  1  0  0  0
 23 24  1  0  0  0
 24 25  2  0  0  0
 25 26  1  0  0  0
 26 27  1  0  0  0
 21 16  1  0  0  0
 15 10  1  0  0  0
  9  1  2  0  0  0
 27 23  2  0  0  0
  8  4  1  0  0  0
 21 22  1  0  0  0
 26 28  1  0  0  0
M  END
> <minimizedAffinity>
-3.63181

> <CNNscore>
0.3024646342

> <CNNaffinity>
5.4886169434

> <CNN_VS>
1.6601125002

> <CNNaffinity_variance>
0.7213903666

$$$$
[H]c1nn([H])c([H])c1-c1c([H])nn2c([H])c(-c3c([H])c([H])c(N4C([H])([H])C([H])([H])N([H])C([H])([H])C4([H])[H])c([H])c3[H])c([H])nc12


 28 32  0  0  0  0  0  0  0  0999 V2000
    2.1976  -50.6133  -21.5302 C   0  0  0  0  0  0  0  0  0  0  0  0
    2.1256  -50.3673  -22.8803 C   0  0  0  0  0  0  0  0  0  0  0  0
    1.3797  -51.1582  -23.6751 N   0  0  0  0  0  0  0  0  0  0  0  0
    0.7116  -52.1915  -23.1042 C   0  0  0  0  0  0  0  0  0  0  0  0
   -0.1128  -53.1340  -23.7110 C   0  0  0  0  0  0  0  0  0  0  0  0
   -0.5267  -53.9461  -22.6764 C   0  0  0  0  0  0  0  0  0  0  0  0
    0.0115  -53.5238  -21.5187 N   0  0  0  0  0  0  0  0  0  0  0  0
    0.7666  -52.4518  -21.7874 N   0  0  0  0  0  0  0  0  0  0  0  0
    1.5109  -51.6634  -20.9913 C   0  0  0  0  0  0  0  0  0  0  0  0
    4.5144  -48.1775  -18.9052 C   0  0  0  0  0  0  0  0  0  0  0  0
    3.5890  -49.0601  -18.3897 C   0  0  0  0  0  0  0  0  0  0  0  0
    2.8594  -49.8302  -19.2740 C   0  0  0  0  0  0  0  0  0  0  0  0
    3.0032  -49.7670  -20.6355 C   0  0  0  0  0  0  0  0  0  0  0  0
    3.9281  -48.8844  -21.1413 C   0  0  0  0  0  0  0  0  0  0  0  0
    4.6784  -48.0953  -20.2830 C   0  0  0  0  0  0  0  0  0  0  0  0
    7.4712  -46.4983  -17.2852 C   0  0  0  0  0  0  0  0  0  0  0  0
    6.5939  -46.9654  -18.4019 C   0  0  0  0  0  0  0  0  0  0  0  0
    5.2724  -47.3726  -18.0185 N   0  0  0  0  0  0  0  0  0  0  0  0
    4.7510  -46.9610  -16.7692 C   0  0  0  0  0  0  0  0  0  0  0  0
    5.4129  -45.7315  -16.2760 C   0  0  0  0  0  0  0  0  0  0  0  0
    6.8293  -45.7244  -16.2859 N   0  0  0  0  0  0  0  0  0  0  0  0
    7.2600  -45.9391  -15.3441 H   0  0  0  0  0  0  0  0  0  0  0  0
   -0.4426  -53.2139  -25.1299 C   0  0  0  0  0  0  0  0  0  0  0  0
   -1.3077  -52.3794  -25.8417 C   0  0  0  0  0  0  0  0  0  0  0  0
   -1.3357  -52.7899  -27.1234 N   0  0  0  0  0  0  0  0  0  0  0  0
   -0.5281  -53.8503  -27.2674 N   0  0  0  0  0  0  0  0  0  0  0  0
    0.0144  -54.1112  -26.0664 C   0  0  0  0  0  0  0  0  0  0  0  0
   -0.3440  -54.3851  -28.1425 H   0  0  0  0  0  0  0  0  0  0  0  0
 16 17  1  0  0  0
 17 18  1  0  0  0
 18 19  1  0  0  0
 19 20  1  0  0  0
 20 21  1  0  0  0
 18 10  1  0  0  0
 10 11  2  0  0  0
 11 12  1  0  0  0
 12 13  2  0  0  0
 13 14  1  0  0  0
 14 15  2  0  0  0
 13  1  1  0  0  0
  1  2  1  0  0  0
  2  3  2  0  0  0
  3  4  1  0  0  0
  4  5  2  0  0  0
  5  6  1  0  0  0
  6  7  2  0  0  0
  7  8  1  0  0  0
  8  9  1  0  0  0
  5 23  1  0  0  0
 23 24  1  0  0  0
 24 25  2  0  0  0
 25 26  1  0  0  0
 26 27  1  0  0  0
 21 16  1  0  0  0
 15 10  1  0  0  0
  9  1  2  0  0  0
 27 23  2  0  0  0
  8  4  1  0  0  0
 21 22  1  0  0  0
 26 28  1  0  0  0
M  END
> <minimizedAffinity>
-6.13637

> <CNNscore>
0.2315492034

> <CNNaffinity>
5.9028344154

> <CNN_VS>
1.3667966127

> <CNNaffinity_variance>
0.4775904715

$$$$
[H]c1c(-c2nn([H])c(Br)c2[H])c([H])c2c([H])c(=O)n([H])nc2c1[H]


 19 21  0  0  0  0  0  0  0  0999 V2000
   -0.5432  -54.0056  -22.6922 C   0  0  0  0  0  0  0  0  0  0  0  0
   -1.0429  -55.1629  -23.2314 C   0  0  0  0  0  0  0  0  0  0  0  0
   -0.8674  -55.5190  -24.5519 C   0  0  0  0  0  0  0  0  0  0  0  0
   -0.1581  -54.6867  -25.3913 C   0  0  0  0  0  0  0  0  0  0  0  0
    0.0368  -55.0037  -26.7029 N   0  0  0  0  0  0  0  0  0  0  0  0
    0.7120  -54.2262  -27.5311 N   0  0  0  0  0  0  0  0  0  0  0  0
    1.2269  -53.0785  -27.0642 C   0  0  0  0  0  0  0  0  0  0  0  0
    1.8650  -52.3515  -27.8620 O   0  0  0  0  0  0  0  0  0  0  0  0
    1.0534  -52.7147  -25.7350 C   0  0  0  0  0  0  0  0  0  0  0  0
    0.3540  -53.5163  -24.8699 C   0  0  0  0  0  0  0  0  0  0  0  0
    0.1710  -53.1742  -23.5501 C   0  0  0  0  0  0  0  0  0  0  0  0
    0.8383  -54.5128  -28.5415 H   0  0  0  0  0  0  0  0  0  0  0  0
    0.0803  -51.3795  -17.9114 Br  0  0  0  0  0  0  0  0  0  0  0  0
   -0.5047  -52.5601  -19.3164 C   0  0  0  0  0  0  0  0  0  0  0  0
   -0.0293  -52.6150  -20.6096 C   0  0  0  0  0  0  0  0  0  0  0  0
   -0.7056  -53.5933  -21.3054 C   0  0  0  0  0  0  0  0  0  0  0  0
   -1.5838  -54.1143  -20.4111 N   0  0  0  0  0  0  0  0  0  0  0  0
   -1.4619  -53.5037  -19.2434 N   0  0  0  0  0  0  0  0  0  0  0  0
   -2.0077  -53.6916  -18.3611 H   0  0  0  0  0  0  0  0  0  0  0  0
 13 14  1  0  0  0
 14 15  2  0  0  0
 15 16  1  0  0  0
 16  1  1  0  0  0
  1  2  1  0  0  0
  2  3  2  0  0  0
  3  4  1  0  0  0
  4  5  2  0  0  0
  5  6  1  0  0  0
  6  7  1  0  0  0
  7  8  2  0  0  0
  7  9  1  0  0  0
  9 10  2  0  0  0
 10 11  1  0  0  0
 16 17  2  0  0  0
 17 18  1  0  0  0
 18 14  1  0  0  0
 11  1  2  0  0  0
 10  4  1  0  0  0
  6 12  1  0  0  0
 18 19  1  0  0  0
M  END
> <minimizedAffinity>
-7.65315

> <CNNscore>
0.9039146900

> <CNNaffinity>
5.9320459366

> <CNN_VS>
5.3620634079

> <CNNaffinity_variance>
0.1112891212

$$$$
[H]c1c(-c2nn([H])c(Br)c2[H])c([H])c2c([H])c(=O)n([H])nc2c1[H]


 19 21  0  0  0  0  0  0  0  0999 V2000
    0.0873  -51.8543  -20.5075 C   0  0  0  0  0  0  0  0  0  0  0  0
   -0.6610  -52.7929  -19.8451 C   0  0  0  0  0  0  0  0  0  0  0  0
   -1.2247  -53.8868  -20.4671 C   0  0  0  0  0  0  0  0  0  0  0  0
   -1.0409  -54.0675  -21.8214 C   0  0  0  0  0  0  0  0  0  0  0  0
   -1.5821  -55.1362  -22.4725 N   0  0  0  0  0  0  0  0  0  0  0  0
   -1.4232  -55.3357  -23.7691 N   0  0  0  0  0  0  0  0  0  0  0  0
   -0.7007  -54.4522  -24.4746 C   0  0  0  0  0  0  0  0  0  0  0  0
   -0.5588  -54.6551  -25.7037 O   0  0  0  0  0  0  0  0  0  0  0  0
   -0.1305  -53.3485  -23.8534 C   0  0  0  0  0  0  0  0  0  0  0  0
   -0.2911  -53.1349  -22.5084 C   0  0  0  0  0  0  0  0  0  0  0  0
    0.2652  -52.0484  -21.8742 C   0  0  0  0  0  0  0  0  0  0  0  0
   -1.8617  -56.1796  -24.2322 H   0  0  0  0  0  0  0  0  0  0  0  0
    3.1002  -47.3341  -19.7129 Br  0  0  0  0  0  0  0  0  0  0  0  0
    1.9079  -48.8307  -19.4925 C   0  0  0  0  0  0  0  0  0  0  0  0
    1.5848  -49.7838  -20.4352 C   0  0  0  0  0  0  0  0  0  0  0  0
    0.6990  -50.6869  -19.8890 C   0  0  0  0  0  0  0  0  0  0  0  0
    0.5027  -50.2577  -18.6164 N   0  0  0  0  0  0  0  0  0  0  0  0
    1.2154  -49.1663  -18.3881 N   0  0  0  0  0  0  0  0  0  0  0  0
    1.2666  -48.6089  -17.4946 H   0  0  0  0  0  0  0  0  0  0  0  0
 13 14  1  0  0  0
 14 15  2  0  0  0
 15 16  1  0  0  0
 16  1  1  0  0  0
  1  2  1  0  0  0
  2  3  2  0  0  0
  3  4  1  0  0  0
  4  5  2  0  0  0
  5  6  1  0  0  0
  6  7  1  0  0  0
  7  8  2  0  0  0
  7  9  1  0  0  0
  9 10  2  0  0  0
 10 11  1  0  0  0
 16 17  2  0  0  0
 17 18  1  0  0  0
 18 14  1  0  0  0
 11  1  2  0  0  0
 10  4  1  0  0  0
  6 12  1  0  0  0
 18 19  1  0  0  0
M  END
> <minimizedAffinity>
-7.38190

> <CNNscore>
0.8742724061

> <CNNaffinity>
5.5966653824

> <CNN_VS>
4.8930101395

> <CNNaffinity_variance>
0.0884910226

$$$$
[H]c1c(-c2nn([H])c(Br)c2[H])c([H])c2c([H])c(=O)n([H])nc2c1[H]


 19 21  0  0  0  0  0  0  0  0999 V2000
    0.2844  -51.4242  -21.5019 C   0  0  0  0  0  0  0  0  0  0  0  0
   -0.4488  -52.1533  -20.6016 C   0  0  0  0  0  0  0  0  0  0  0  0
   -1.0389  -53.3610  -20.9092 C   0  0  0  0  0  0  0  0  0  0  0  0
   -0.8990  -53.8818  -22.1780 C   0  0  0  0  0  0  0  0  0  0  0  0
   -1.4674  -55.0727  -22.5207 N   0  0  0  0  0  0  0  0  0  0  0  0
   -1.3506  -55.5966  -23.7282 N   0  0  0  0  0  0  0  0  0  0  0  0
   -0.6449  -54.9313  -24.6553 C   0  0  0  0  0  0  0  0  0  0  0  0
   -0.5430  -55.4411  -25.7962 O   0  0  0  0  0  0  0  0  0  0  0  0
   -0.0482  -53.7144  -24.3512 C   0  0  0  0  0  0  0  0  0  0  0  0
   -0.1651  -53.1646  -23.1005 C   0  0  0  0  0  0  0  0  0  0  0  0
    0.4180  -51.9609  -22.7791 C   0  0  0  0  0  0  0  0  0  0  0  0
   -1.8090  -56.5240  -23.9492 H   0  0  0  0  0  0  0  0  0  0  0  0
    3.2302  -46.8209  -22.0250 Br  0  0  0  0  0  0  0  0  0  0  0  0
    2.1117  -48.2417  -21.3614 C   0  0  0  0  0  0  0  0  0  0  0  0
    1.7201  -49.3780  -22.0374 C   0  0  0  0  0  0  0  0  0  0  0  0
    0.9229  -50.1470  -21.2178 C   0  0  0  0  0  0  0  0  0  0  0  0
    0.8481  -49.4541  -20.0530 N   0  0  0  0  0  0  0  0  0  0  0  0
    1.5485  -48.3349  -20.1424 N   0  0  0  0  0  0  0  0  0  0  0  0
    1.6763  -47.5972  -19.4000 H   0  0  0  0  0  0  0  0  0  0  0  0
 13 14  1  0  0  0
 14 15  2  0  0  0
 15 16  1  0  0  0
 16  1  1  0  0  0
  1  2  1  0  0  0
  2  3  2  0  0  0
  3  4  1  0  0  0
  4  5  2  0  0  0
  5  6  1  0  0  0
  6  7  1  0  0  0
  7  8  2  0  0  0
  7  9  1  0  0  0
  9 10  2  0  0  0
 10 11  1  0  0  0
 16 17  2  0  0  0
 17 18  1  0  0  0
 18 14  1  0  0  0
 11  1  2  0  0  0
 10  4  1  0  0  0
  6 12  1  0  0  0
 18 19  1  0  0  0
M  END
> <minimizedAffinity>
-7.17683

> <CNNscore>
0.7985198498

> <CNNaffinity>
5.6956815720

> <CNN_VS>
4.5481147766

> <CNNaffinity_variance>
0.2111956775

$$$$
[H]c1c(-c2nn([H])c(Br)c2[H])c([H])c2c([H])c(=O)n([H])nc2c1[H]


 19 21  0  0  0  0  0  0  0  0999 V2000
    1.4433  -52.2501  -25.7711 C   0  0  0  0  0  0  0  0  0  0  0  0
    1.0678  -53.2328  -26.6504 C   0  0  0  0  0  0  0  0  0  0  0  0
    0.2385  -54.2791  -26.3056 C   0  0  0  0  0  0  0  0  0  0  0  0
   -0.2501  -54.3631  -25.0191 C   0  0  0  0  0  0  0  0  0  0  0  0
   -1.0723  -55.3822  -24.6397 N   0  0  0  0  0  0  0  0  0  0  0  0
   -1.5559  -55.4890  -23.4146 N   0  0  0  0  0  0  0  0  0  0  0  0
   -1.2254  -54.5582  -22.5064 C   0  0  0  0  0  0  0  0  0  0  0  0
   -1.6921  -54.6732  -21.3485 O   0  0  0  0  0  0  0  0  0  0  0  0
   -0.3906  -53.5021  -22.8481 C   0  0  0  0  0  0  0  0  0  0  0  0
    0.1150  -53.3847  -24.1173 C   0  0  0  0  0  0  0  0  0  0  0  0
    0.9433  -52.3465  -24.4758 C   0  0  0  0  0  0  0  0  0  0  0  0
   -2.1910  -56.2974  -23.1651 H   0  0  0  0  0  0  0  0  0  0  0  0
    4.2416  -47.5381  -25.4423 Br  0  0  0  0  0  0  0  0  0  0  0  0
    3.4901  -49.2118  -26.0289 C   0  0  0  0  0  0  0  0  0  0  0  0
    2.6195  -50.0233  -25.3323 C   0  0  0  0  0  0  0  0  0  0  0  0
    2.3156  -51.1302  -26.0945 C   0  0  0  0  0  0  0  0  0  0  0  0
    3.0145  -50.9641  -27.2462 N   0  0  0  0  0  0  0  0  0  0  0  0
    3.7033  -49.8350  -27.2028 N   0  0  0  0  0  0  0  0  0  0  0  0
    4.3362  -49.4407  -27.9481 H   0  0  0  0  0  0  0  0  0  0  0  0
 13 14  1  0  0  0
 14 15  2  0  0  0
 15 16  1  0  0  0
 16  1  1  0  0  0
  1  2  1  0  0  0
  2  3  2  0  0  0
  3  4  1  0  0  0
  4  5  2  0  0  0
  5  6  1  0  0  0
  6  7  1  0  0  0
  7  8  2  0  0  0
  7  9  1  0  0  0
  9 10  2  0  0  0
 10 11  1  0  0  0
 16 17  2  0  0  0
 17 18  1  0  0  0
 18 14  1  0  0  0
 11  1  2  0  0  0
 10  4  1  0  0  0
  6 12  1  0  0  0
 18 19  1  0  0  0
M  END
> <minimizedAffinity>
-7.24636

> <CNNscore>
0.7431990504

> <CNNaffinity>
5.6428384781

> <CNN_VS>
4.1937522888

> <CNNaffinity_variance>
0.2297643721

$$$$
[H]c1c(-c2nn([H])c(Br)c2[H])c([H])c2c([H])c(=O)n([H])nc2c1[H]


 19 21  0  0  0  0  0  0  0  0999 V2000
   -0.2298  -53.0640  -21.8111 C   0  0  0  0  0  0  0  0  0  0  0  0
   -0.7060  -53.5584  -20.6243 C   0  0  0  0  0  0  0  0  0  0  0  0
   -0.5459  -52.9114  -19.4172 C   0  0  0  0  0  0  0  0  0  0  0  0
    0.1226  -51.7064  -19.3758 C   0  0  0  0  0  0  0  0  0  0  0  0
    0.3014  -51.0363  -18.2020 N   0  0  0  0  0  0  0  0  0  0  0  0
    0.9376  -49.8803  -18.1313 N   0  0  0  0  0  0  0  0  0  0  0  0
    1.4280  -49.3430  -19.2588 C   0  0  0  0  0  0  0  0  0  0  0  0
    2.0290  -48.2459  -19.1756 O   0  0  0  0  0  0  0  0  0  0  0  0
    1.2696  -49.9902  -20.4776 C   0  0  0  0  0  0  0  0  0  0  0  0
    0.6107  -51.1900  -20.5586 C   0  0  0  0  0  0  0  0  0  0  0  0
    0.4432  -51.8469  -21.7556 C   0  0  0  0  0  0  0  0  0  0  0  0
    1.0525  -49.3959  -17.1980 H   0  0  0  0  0  0  0  0  0  0  0  0
    0.1580  -54.1927  -27.1699 Br  0  0  0  0  0  0  0  0  0  0  0  0
   -0.2603  -54.2392  -25.2902 C   0  0  0  0  0  0  0  0  0  0  0  0
    0.1228  -53.3276  -24.3292 C   0  0  0  0  0  0  0  0  0  0  0  0
   -0.3774  -53.7147  -23.1051 C   0  0  0  0  0  0  0  0  0  0  0  0
   -1.0585  -54.8623  -23.3530 N   0  0  0  0  0  0  0  0  0  0  0  0
   -0.9867  -55.1665  -24.6389 N   0  0  0  0  0  0  0  0  0  0  0  0
   -1.4159  -55.9970  -25.1265 H   0  0  0  0  0  0  0  0  0  0  0  0
 13 14  1  0  0  0
 14 15  2  0  0  0
 15 16  1  0  0  0
 16  1  1  0  0  0
  1  2  1  0  0  0
  2  3  2  0  0  0
  3  4  1  0  0  0
  4  5  2  0  0  0
  5  6  1  0  0  0
  6  7  1  0  0  0
  7  8  2  0  0  0
  7  9  1  0  0  0
  9 10  2  0  0  0
 10 11  1  0  0  0
 16 17  2  0  0  0
 17 18  1  0  0  0
 18 14  1  0  0  0
 11  1  2  0  0  0
 10  4  1  0  0  0
  6 12  1  0  0  0
 18 19  1  0  0  0
M  END
> <minimizedAffinity>
-6.72928

> <CNNscore>
0.7116428018

> <CNNaffinity>
5.5533885956

> <CNN_VS>
3.9520289898

> <CNNaffinity_variance>
0.1681619585

$$$$
[H]c1c(-c2nn([H])c(Br)c2[H])c([H])c2c([H])c(=O)n([H])nc2c1[H]


 19 21  0  0  0  0  0  0  0  0999 V2000
   -0.3845  -53.1473  -23.5076 C   0  0  0  0  0  0  0  0  0  0  0  0
   -1.0194  -54.2990  -23.1199 C   0  0  0  0  0  0  0  0  0  0  0  0
   -1.3102  -54.5961  -21.8052 C   0  0  0  0  0  0  0  0  0  0  0  0
   -0.9550  -53.7069  -20.8133 C   0  0  0  0  0  0  0  0  0  0  0  0
   -1.2251  -53.9647  -19.5021 N   0  0  0  0  0  0  0  0  0  0  0  0
   -0.8970  -53.1319  -18.5300 N   0  0  0  0  0  0  0  0  0  0  0  0
   -0.2729  -51.9864  -18.8441 C   0  0  0  0  0  0  0  0  0  0  0  0
    0.0319  -51.2066  -17.9109 O   0  0  0  0  0  0  0  0  0  0  0  0
    0.0225  -51.6818  -20.1667 C   0  0  0  0  0  0  0  0  0  0  0  0
   -0.3149  -52.5411  -21.1807 C   0  0  0  0  0  0  0  0  0  0  0  0
   -0.0314  -52.2581  -22.4966 C   0  0  0  0  0  0  0  0  0  0  0  0
   -1.1267  -53.3737  -17.5261 H   0  0  0  0  0  0  0  0  0  0  0  0
    0.6221  -53.4929  -28.8935 Br  0  0  0  0  0  0  0  0  0  0  0  0
    0.3648  -52.8631  -27.0915 C   0  0  0  0  0  0  0  0  0  0  0  0
    0.0308  -53.6165  -25.9859 C   0  0  0  0  0  0  0  0  0  0  0  0
   -0.0596  -52.7961  -24.8826 C   0  0  0  0  0  0  0  0  0  0  0  0
    0.2239  -51.5527  -25.3475 N   0  0  0  0  0  0  0  0  0  0  0  0
    0.4727  -51.5973  -26.6465 N   0  0  0  0  0  0  0  0  0  0  0  0
    0.7218  -50.7921  -27.2799 H   0  0  0  0  0  0  0  0  0  0  0  0
 13 14  1  0  0  0
 14 15  2  0  0  0
 15 16  1  0  0  0
 16  1  1  0  0  0
  1  2  1  0  0  0
  2  3  2  0  0  0
  3  4  1  0  0  0
  4  5  2  0  0  0
  5  6  1  0  0  0
  6  7  1  0  0  0
  7  8  2  0  0  0
  7  9  1  0  0  0
  9 10  2  0  0  0
 10 11  1  0  0  0
 16 17  2  0  0  0
 17 18  1  0  0  0
 18 14  1  0  0  0
 11  1  2  0  0  0
 10  4  1  0  0  0
  6 12  1  0  0  0
 18 19  1  0  0  0
M  END
> <minimizedAffinity>
-6.27865

> <CNNscore>
0.6666539311

> <CNNaffinity>
5.3533921242

> <CNN_VS>
3.5688598156

> <CNNaffinity_variance>
0.1411224306

$$$$
[H]c1c(-c2nn([H])c(Br)c2[H])c([H])c2c([H])c(=O)n([H])nc2c1[H]


 19 21  0  0  0  0  0  0  0  0999 V2000
    0.7111  -52.8276  -24.0237 C   0  0  0  0  0  0  0  0  0  0  0  0
    2.0204  -52.7649  -24.4258 C   0  0  0  0  0  0  0  0  0  0  0  0
    2.4060  -52.7765  -25.7497 C   0  0  0  0  0  0  0  0  0  0  0  0
    1.4460  -52.8543  -26.7361 C   0  0  0  0  0  0  0  0  0  0  0  0
    1.7873  -52.8682  -28.0560 N   0  0  0  0  0  0  0  0  0  0  0  0
    0.8900  -52.9421  -29.0231 N   0  0  0  0  0  0  0  0  0  0  0  0
   -0.4095  -53.0061  -28.6950 C   0  0  0  0  0  0  0  0  0  0  0  0
   -1.2489  -53.0757  -29.6237 O   0  0  0  0  0  0  0  0  0  0  0  0
   -0.8038  -52.9947  -27.3632 C   0  0  0  0  0  0  0  0  0  0  0  0
    0.1217  -52.9183  -26.3542 C   0  0  0  0  0  0  0  0  0  0  0  0
   -0.2481  -52.9058  -25.0293 C   0  0  0  0  0  0  0  0  0  0  0  0
    1.2012  -52.9500  -30.0341 H   0  0  0  0  0  0  0  0  0  0  0  0
    0.2294  -51.6079  -18.6926 Br  0  0  0  0  0  0  0  0  0  0  0  0
    0.0094  -52.3690  -20.4483 C   0  0  0  0  0  0  0  0  0  0  0  0
    0.7194  -52.0534  -21.5875 C   0  0  0  0  0  0  0  0  0  0  0  0
    0.2624  -52.8179  -22.6388 C   0  0  0  0  0  0  0  0  0  0  0  0
   -0.7230  -53.5868  -22.1093 N   0  0  0  0  0  0  0  0  0  0  0  0
   -0.8679  -53.3192  -20.8214 N   0  0  0  0  0  0  0  0  0  0  0  0
   -1.5516  -53.7565  -20.1484 H   0  0  0  0  0  0  0  0  0  0  0  0
 13 14  1  0  0  0
 14 15  2  0  0  0
 15 16  1  0  0  0
 16  1  1  0  0  0
  1  2  1  0  0  0
  2  3  2  0  0  0
  3  4  1  0  0  0
  4  5  2  0  0  0
  5  6  1  0  0  0
  6  7  1  0  0  0
  7  8  2  0  0  0
  7  9  1  0  0  0
  9 10  2  0  0  0
 10 11  1  0  0  0
 16 17  2  0  0  0
 17 18  1  0  0  0
 18 14  1  0  0  0
 11  1  2  0  0  0
 10  4  1  0  0  0
  6 12  1  0  0  0
 18 19  1  0  0  0
M  END
> <minimizedAffinity>
-7.12939

> <CNNscore>
0.6570347548

> <CNNaffinity>
5.8736257553

> <CNN_VS>
3.8591761589

> <CNNaffinity_variance>
0.1967558861

$$$$
[H]c1c(-c2nn([H])c(Br)c2[H])c([H])c2c([H])c(=O)n([H])nc2c1[H]


 19 21  0  0  0  0  0  0  0  0999 V2000
    0.9428  -52.6814  -24.2847 C   0  0  0  0  0  0  0  0  0  0  0  0
    0.0270  -53.6553  -24.5889 C   0  0  0  0  0  0  0  0  0  0  0  0
   -0.7983  -54.2368  -23.6497 C   0  0  0  0  0  0  0  0  0  0  0  0
   -0.7173  -53.8358  -22.3331 C   0  0  0  0  0  0  0  0  0  0  0  0
   -1.5160  -54.3867  -21.3753 N   0  0  0  0  0  0  0  0  0  0  0  0
   -1.4611  -54.0230  -20.1062 N   0  0  0  0  0  0  0  0  0  0  0  0
   -0.5848  -53.0737  -19.7438 C   0  0  0  0  0  0  0  0  0  0  0  0
   -0.5446  -52.7392  -18.5361 O   0  0  0  0  0  0  0  0  0  0  0  0
    0.2489  -52.4844  -20.6855 C   0  0  0  0  0  0  0  0  0  0  0  0
    0.1976  -52.8568  -22.0042 C   0  0  0  0  0  0  0  0  0  0  0  0
    1.0145  -52.2856  -22.9522 C   0  0  0  0  0  0  0  0  0  0  0  0
   -2.1007  -54.4782  -19.3971 H   0  0  0  0  0  0  0  0  0  0  0  0
    3.8010  -48.8951  -27.0481 Br  0  0  0  0  0  0  0  0  0  0  0  0
    3.0307  -50.5456  -26.4216 C   0  0  0  0  0  0  0  0  0  0  0  0
    2.1458  -50.7076  -25.3765 C   0  0  0  0  0  0  0  0  0  0  0  0
    1.8314  -52.0427  -25.2450 C   0  0  0  0  0  0  0  0  0  0  0  0
    2.5387  -52.6661  -26.2215 N   0  0  0  0  0  0  0  0  0  0  0  0
    3.2421  -51.7818  -26.9104 N   0  0  0  0  0  0  0  0  0  0  0  0
    3.8841  -51.9678  -27.7258 H   0  0  0  0  0  0  0  0  0  0  0  0
 13 14  1  0  0  0
 14 15  2  0  0  0
 15 16  1  0  0  0
 16  1  1  0  0  0
  1  2  1  0  0  0
  2  3  2  0  0  0
  3  4  1  0  0  0
  4  5  2  0  0  0
  5  6  1  0  0  0
  6  7  1  0  0  0
  7  8  2  0  0  0
  7  9  1  0  0  0
  9 10  2  0  0  0
 10 11  1  0  0  0
 16 17  2  0  0  0
 17 18  1  0  0  0
 18 14  1  0  0  0
 11  1  2  0  0  0
 10  4  1  0  0  0
  6 12  1  0  0  0
 18 19  1  0  0  0
M  END
> <minimizedAffinity>
-7.04854

> <CNNscore>
0.5993614793

> <CNNaffinity>
5.4028916359

> <CNN_VS>
3.2382850647

> <CNNaffinity_variance>
0.1313050091

$$$$
[H]c1c(-c2nn([H])c(Br)c2[H])c([H])c2c([H])c(=O)n([H])nc2c1[H]


 19 21  0  0  0  0  0  0  0  0999 V2000
   -0.3620  -53.5410  -23.4101 C   0  0  0  0  0  0  0  0  0  0  0  0
   -0.7916  -54.4525  -22.4804 C   0  0  0  0  0  0  0  0  0  0  0  0
   -0.7822  -54.2097  -21.1231 C   0  0  0  0  0  0  0  0  0  0  0  0
   -0.3227  -52.9978  -20.6531 C   0  0  0  0  0  0  0  0  0  0  0  0
   -0.2977  -52.7201  -19.3186 N   0  0  0  0  0  0  0  0  0  0  0  0
    0.1370  -51.5682  -18.8387 N   0  0  0  0  0  0  0  0  0  0  0  0
    0.5714  -50.6334  -19.6976 C   0  0  0  0  0  0  0  0  0  0  0  0
    0.9807  -49.5457  -19.2271 O   0  0  0  0  0  0  0  0  0  0  0  0
    0.5643  -50.8724  -21.0659 C   0  0  0  0  0  0  0  0  0  0  0  0
    0.1147  -52.0653  -21.5711 C   0  0  0  0  0  0  0  0  0  0  0  0
    0.0994  -52.3217  -22.9225 C   0  0  0  0  0  0  0  0  0  0  0  0
    0.1381  -51.3965  -17.7948 H   0  0  0  0  0  0  0  0  0  0  0  0
   -0.5498  -52.6750  -28.8282 Br  0  0  0  0  0  0  0  0  0  0  0  0
   -0.4231  -53.4769  -27.0814 C   0  0  0  0  0  0  0  0  0  0  0  0
   -0.4869  -52.8336  -25.8634 C   0  0  0  0  0  0  0  0  0  0  0  0
   -0.3554  -53.7576  -24.8498 C   0  0  0  0  0  0  0  0  0  0  0  0
   -0.2136  -54.9509  -25.4809 N   0  0  0  0  0  0  0  0  0  0  0  0
   -0.2541  -54.7806  -26.7926 N   0  0  0  0  0  0  0  0  0  0  0  0
   -0.1712  -55.5213  -27.5384 H   0  0  0  0  0  0  0  0  0  0  0  0
 13 14  1  0  0  0
 14 15  2  0  0  0
 15 16  1  0  0  0
 16  1  1  0  0  0
  1  2  1  0  0  0
  2  3  2  0  0  0
  3  4  1  0  0  0
  4  5  2  0  0  0
  5  6  1  0  0  0
  6  7  1  0  0  0
  7  8  2  0  0  0
  7  9  1  0  0  0
  9 10  2  0  0  0
 10 11  1  0  0  0
 16 17  2  0  0  0
 17 18  1  0  0  0
 18 14  1  0  0  0
 11  1  2  0  0  0
 10  4  1  0  0  0
  6 12  1  0  0  0
 18 19  1  0  0  0
M  END
> <minimizedAffinity>
-7.96393

> <CNNscore>
0.4929406941

> <CNNaffinity>
5.4907159805

> <CNN_VS>
2.7065973282

> <CNNaffinity_variance>
0.0638153851

$$$$
[H]c1c([H])c(N([H])C(=O)N([H])c2c([H])c([H])c(S(=O)(=O)N([H])[H])c([H])c2[H])c([H])c(Cl)c1Cl


 26 27  0  0  0  0  0  0  0  0999 V2000
   -0.0267  -53.9887  -20.8303 N   0  0  0  0  0  0  0  0  0  0  0  0
   -0.6044  -53.0824  -19.9130 C   0  0  0  0  0  0  0  0  0  0  0  0
   -1.0446  -52.0094  -20.3748 O   0  0  0  0  0  0  0  0  0  0  0  0
   -0.6663  -53.4064  -18.5355 N   0  0  0  0  0  0  0  0  0  0  0  0
    0.3542  -54.9063  -20.4138 H   0  0  0  0  0  0  0  0  0  0  0  0
   -0.2613  -54.3493  -18.2443 H   0  0  0  0  0  0  0  0  0  0  0  0
   -1.2019  -52.6069  -17.5216 C   0  0  0  0  0  0  0  0  0  0  0  0
   -0.5913  -51.5498  -16.8943 C   0  0  0  0  0  0  0  0  0  0  0  0
   -1.2043  -50.7832  -15.8962 C   0  0  0  0  0  0  0  0  0  0  0  0
   -2.4790  -51.0613  -15.4872 C   0  0  0  0  0  0  0  0  0  0  0  0
   -3.3041  -50.1451  -14.2467 Cl  0  0  0  0  0  0  0  0  0  0  0  0
   -3.1139  -52.1159  -16.0989 C   0  0  0  0  0  0  0  0  0  0  0  0
   -4.7563  -52.4827  -15.5787 Cl  0  0  0  0  0  0  0  0  0  0  0  0
   -2.5112  -52.8654  -17.0768 C   0  0  0  0  0  0  0  0  0  0  0  0
    0.0406  -53.4651  -25.0597 C   0  0  0  0  0  0  0  0  0  0  0  0
   -0.8118  -54.3329  -24.4150 C   0  0  0  0  0  0  0  0  0  0  0  0
   -0.8118  -54.4937  -23.0523 C   0  0  0  0  0  0  0  0  0  0  0  0
    0.0745  -53.7689  -22.2191 C   0  0  0  0  0  0  0  0  0  0  0  0
    0.9178  -52.9083  -22.8639 C   0  0  0  0  0  0  0  0  0  0  0  0
    0.9053  -52.7552  -24.2647 C   0  0  0  0  0  0  0  0  0  0  0  0
    0.6067  -54.7760  -27.4693 N   0  0  0  0  0  0  0  0  0  0  0  0
   -0.0009  -53.2993  -26.7995 S   0  0  0  0  0  0  0  0  0  0  0  0
    0.8351  -52.1304  -27.1785 O   0  0  0  0  0  0  0  0  0  0  0  0
   -1.3949  -53.1159  -27.3153 O   0  0  0  0  0  0  0  0  0  0  0  0
   -0.1091  -55.5017  -27.5612 H   0  0  0  0  0  0  0  0  0  0  0  0
    1.4747  -55.0889  -26.9872 H   0  0  0  0  0  0  0  0  0  0  0  0
 21 22  1  0  0  0
 22 23  2  0  0  0
 22 24  2  0  0  0
 22 15  1  0  0  0
 15 16  2  0  0  0
 16 17  1  0  0  0
 17 18  2  0  0  0
 18  1  1  0  0  0
  1  2  1  0  0  0
  2  3  2  0  0  0
  2  4  1  0  0  0
  4  7  1  0  0  0
  7  8  2  0  0  0
  8  9  1  0  0  0
  9 10  2  0  0  0
 10 11  1  0  0  0
 10 12  1  0  0  0
 12 13  1  0  0  0
 12 14  2  0  0  0
 18 19  1  0  0  0
 19 20  2  0  0  0
 20 15  1  0  0  0
 14  7  1  0  0  0
 21 25  1  0  0  0
 21 26  1  0  0  0
  1  5  1  0  0  0
  4  6  1  0  0  0
M  END
> <minimizedAffinity>
-7.48024

> <CNNscore>
0.5359907746

> <CNNaffinity>
5.7830286026

> <CNN_VS>
3.0996499062

> <CNNaffinity_variance>
0.0571398959

$$$$
[H]c1c([H])c(N([H])C(=O)N([H])c2c([H])c([H])c(S(=O)(=O)N([H])[H])c([H])c2[H])c([H])c(Cl)c1Cl


 26 27  0  0  0  0  0  0  0  0999 V2000
    1.9035  -51.5076  -22.1931 N   0  0  0  0  0  0  0  0  0  0  0  0
    1.1509  -51.8280  -23.3453 C   0  0  0  0  0  0  0  0  0  0  0  0
   -0.0642  -52.0640  -23.1831 O   0  0  0  0  0  0  0  0  0  0  0  0
    1.7769  -51.8714  -24.6151 N   0  0  0  0  0  0  0  0  0  0  0  0
    2.9515  -51.3137  -22.3505 H   0  0  0  0  0  0  0  0  0  0  0  0
    2.8207  -51.6536  -24.6447 H   0  0  0  0  0  0  0  0  0  0  0  0
    1.1593  -52.1777  -25.8312 C   0  0  0  0  0  0  0  0  0  0  0  0
    1.7681  -52.6276  -26.9761 C   0  0  0  0  0  0  0  0  0  0  0  0
    1.0742  -52.9315  -28.1534 C   0  0  0  0  0  0  0  0  0  0  0  0
   -0.2840  -52.7890  -28.2191 C   0  0  0  0  0  0  0  0  0  0  0  0
   -1.2127  -53.1501  -29.6565 Cl  0  0  0  0  0  0  0  0  0  0  0  0
   -0.9192  -52.3392  -27.0861 C   0  0  0  0  0  0  0  0  0  0  0  0
   -2.6690  -52.1519  -27.1605 Cl  0  0  0  0  0  0  0  0  0  0  0  0
   -0.2371  -52.0424  -25.9337 C   0  0  0  0  0  0  0  0  0  0  0  0
    0.3537  -50.9876  -18.2570 C   0  0  0  0  0  0  0  0  0  0  0  0
    1.0318  -50.0050  -18.9424 C   0  0  0  0  0  0  0  0  0  0  0  0
    1.5311  -50.1953  -20.2063 C   0  0  0  0  0  0  0  0  0  0  0  0
    1.3769  -51.4268  -20.8880 C   0  0  0  0  0  0  0  0  0  0  0  0
    0.7022  -52.3983  -20.2036 C   0  0  0  0  0  0  0  0  0  0  0  0
    0.1960  -52.1868  -18.9056 C   0  0  0  0  0  0  0  0  0  0  0  0
    0.8730  -51.3763  -15.5321 N   0  0  0  0  0  0  0  0  0  0  0  0
   -0.2614  -50.6923  -16.6474 S   0  0  0  0  0  0  0  0  0  0  0  0
   -1.6022  -51.3235  -16.5354 O   0  0  0  0  0  0  0  0  0  0  0  0
   -0.3609  -49.2295  -16.3415 O   0  0  0  0  0  0  0  0  0  0  0  0
    1.6483  -50.7467  -15.3084 H   0  0  0  0  0  0  0  0  0  0  0  0
    1.1669  -52.3326  -15.8201 H   0  0  0  0  0  0  0  0  0  0  0  0
 21 22  1  0  0  0
 22 23  2  0  0  0
 22 24  2  0  0  0
 22 15  1  0  0  0
 15 16  2  0  0  0
 16 17  1  0  0  0
 17 18  2  0  0  0
 18  1  1  0  0  0
  1  2  1  0  0  0
  2  3  2  0  0  0
  2  4  1  0  0  0
  4  7  1  0  0  0
  7  8  2  0  0  0
  8  9  1  0  0  0
  9 10  2  0  0  0
 10 11  1  0  0  0
 10 12  1  0  0  0
 12 13  1  0  0  0
 12 14  2  0  0  0
 18 19  1  0  0  0
 19 20  2  0  0  0
 20 15  1  0  0  0
 14  7  1  0  0  0
 21 25  1  0  0  0
 21 26  1  0  0  0
  1  5  1  0  0  0
  4  6  1  0  0  0
M  END
> <minimizedAffinity>
-6.87160

> <CNNscore>
0.4978025556

> <CNNaffinity>
5.8097624779

> <CNN_VS>
2.8921146393

> <CNNaffinity_variance>
0.1106972471

$$$$
[H]c1c([H])c(N([H])C(=O)N([H])c2c([H])c([H])c(S(=O)(=O)N([H])[H])c([H])c2[H])c([H])c(Cl)c1Cl


 26 27  0  0  0  0  0  0  0  0999 V2000
    1.0127  -52.6210  -21.0899 N   0  0  0  0  0  0  0  0  0  0  0  0
    0.3297  -52.5307  -22.3236 C   0  0  0  0  0  0  0  0  0  0  0  0
   -0.8834  -52.2390  -22.2817 O   0  0  0  0  0  0  0  0  0  0  0  0
    1.0195  -52.7664  -23.5381 N   0  0  0  0  0  0  0  0  0  0  0  0
    2.0569  -52.8803  -21.1443 H   0  0  0  0  0  0  0  0  0  0  0  0
    2.0556  -53.0091  -23.4636 H   0  0  0  0  0  0  0  0  0  0  0  0
    0.4715  -52.7169  -24.8231 C   0  0  0  0  0  0  0  0  0  0  0  0
   -0.7416  -52.1853  -25.1834 C   0  0  0  0  0  0  0  0  0  0  0  0
   -1.2134  -52.1570  -26.5011 C   0  0  0  0  0  0  0  0  0  0  0  0
   -0.4645  -52.6741  -27.5214 C   0  0  0  0  0  0  0  0  0  0  0  0
   -0.9926  -52.6715  -29.1887 Cl  0  0  0  0  0  0  0  0  0  0  0  0
    0.7552  -53.2136  -27.1881 C   0  0  0  0  0  0  0  0  0  0  0  0
    1.7276  -53.8828  -28.4954 Cl  0  0  0  0  0  0  0  0  0  0  0  0
    1.2153  -53.2399  -25.8963 C   0  0  0  0  0  0  0  0  0  0  0  0
   -0.6606  -51.6808  -17.2844 C   0  0  0  0  0  0  0  0  0  0  0  0
    0.2764  -50.8956  -17.9173 C   0  0  0  0  0  0  0  0  0  0  0  0
    0.8099  -51.2205  -19.1391 C   0  0  0  0  0  0  0  0  0  0  0  0
    0.4242  -52.3954  -19.8290 C   0  0  0  0  0  0  0  0  0  0  0  0
   -0.5068  -53.1707  -19.1969 C   0  0  0  0  0  0  0  0  0  0  0  0
   -1.0445  -52.8229  -17.9417 C   0  0  0  0  0  0  0  0  0  0  0  0
   -0.5161  -52.1957  -14.5350 N   0  0  0  0  0  0  0  0  0  0  0  0
   -1.3075  -51.2202  -15.7270 S   0  0  0  0  0  0  0  0  0  0  0  0
   -2.7764  -51.4454  -15.7449 O   0  0  0  0  0  0  0  0  0  0  0  0
   -1.0165  -49.7887  -15.3966 O   0  0  0  0  0  0  0  0  0  0  0  0
    0.3824  -51.8112  -14.2310 H   0  0  0  0  0  0  0  0  0  0  0  0
   -0.4799  -53.1966  -14.8190 H   0  0  0  0  0  0  0  0  0  0  0  0
 21 22  1  0  0  0
 22 23  2  0  0  0
 22 24  2  0  0  0
 22 15  1  0  0  0
 15 16  2  0  0  0
 16 17  1  0  0  0
 17 18  2  0  0  0
 18  1  1  0  0  0
  1  2  1  0  0  0
  2  3  2  0  0  0
  2  4  1  0  0  0
  4  7  1  0  0  0
  7  8  2  0  0  0
  8  9  1  0  0  0
  9 10  2  0  0  0
 10 11  1  0  0  0
 10 12  1  0  0  0
 12 13  1  0  0  0
 12 14  2  0  0  0
 18 19  1  0  0  0
 19 20  2  0  0  0
 20 15  1  0  0  0
 14  7  1  0  0  0
 21 25  1  0  0  0
 21 26  1  0  0  0
  1  5  1  0  0  0
  4  6  1  0  0  0
M  END
> <minimizedAffinity>
-7.56848

> <CNNscore>
0.4790905714

> <CNNaffinity>
5.6103825569

> <CNN_VS>
2.6878814697

> <CNNaffinity_variance>
0.0860899910

$$$$
[H]c1c([H])c(N([H])C(=O)N([H])c2c([H])c([H])c(S(=O)(=O)N([H])[H])c([H])c2[H])c([H])c(Cl)c1Cl


 26 27  0  0  0  0  0  0  0  0999 V2000
    1.3523  -52.3249  -20.7488 N   0  0  0  0  0  0  0  0  0  0  0  0
    0.7708  -52.2612  -22.0351 C   0  0  0  0  0  0  0  0  0  0  0  0
   -0.4045  -51.8467  -22.1076 O   0  0  0  0  0  0  0  0  0  0  0  0
    1.5151  -52.6575  -23.1731 N   0  0  0  0  0  0  0  0  0  0  0  0
    2.3645  -52.6912  -20.7040 H   0  0  0  0  0  0  0  0  0  0  0  0
    2.5119  -52.9967  -23.0019 H   0  0  0  0  0  0  0  0  0  0  0  0
    1.0667  -52.6519  -24.4971 C   0  0  0  0  0  0  0  0  0  0  0  0
    1.7761  -53.0269  -25.6106 C   0  0  0  0  0  0  0  0  0  0  0  0
    1.2475  -53.0106  -26.9068 C   0  0  0  0  0  0  0  0  0  0  0  0
   -0.0396  -52.6072  -27.1301 C   0  0  0  0  0  0  0  0  0  0  0  0
   -0.7627  -52.5625  -28.7220 Cl  0  0  0  0  0  0  0  0  0  0  0  0
   -0.7728  -52.2256  -26.0318 C   0  0  0  0  0  0  0  0  0  0  0  0
   -2.4322  -51.7038  -26.3089 Cl  0  0  0  0  0  0  0  0  0  0  0  0
   -0.2527  -52.2427  -24.7628 C   0  0  0  0  0  0  0  0  0  0  0  0
   -0.7039  -51.4374  -17.1225 C   0  0  0  0  0  0  0  0  0  0  0  0
   -0.9021  -52.5923  -17.8452 C   0  0  0  0  0  0  0  0  0  0  0  0
   -0.2363  -52.8554  -19.0159 C   0  0  0  0  0  0  0  0  0  0  0  0
    0.7043  -51.9451  -19.5559 C   0  0  0  0  0  0  0  0  0  0  0  0
    0.8979  -50.8010  -18.8342 C   0  0  0  0  0  0  0  0  0  0  0  0
    0.2056  -50.5457  -17.6337 C   0  0  0  0  0  0  0  0  0  0  0  0
   -1.6570  -49.4368  -15.4094 N   0  0  0  0  0  0  0  0  0  0  0  0
   -1.5797  -51.1518  -15.6367 S   0  0  0  0  0  0  0  0  0  0  0  0
   -0.8556  -51.8282  -14.5290 O   0  0  0  0  0  0  0  0  0  0  0  0
   -2.9880  -51.6564  -15.7064 O   0  0  0  0  0  0  0  0  0  0  0  0
   -2.4370  -48.9989  -15.9067 H   0  0  0  0  0  0  0  0  0  0  0  0
   -0.7343  -48.9845  -15.5762 H   0  0  0  0  0  0  0  0  0  0  0  0
 21 22  1  0  0  0
 22 23  2  0  0  0
 22 24  2  0  0  0
 22 15  1  0  0  0
 15 16  2  0  0  0
 16 17  1  0  0  0
 17 18  2  0  0  0
 18  1  1  0  0  0
  1  2  1  0  0  0
  2  3  2  0  0  0
  2  4  1  0  0  0
  4  7  1  0  0  0
  7  8  2  0  0  0
  8  9  1  0  0  0
  9 10  2  0  0  0
 10 11  1  0  0  0
 10 12  1  0  0  0
 12 13  1  0  0  0
 12 14  2  0  0  0
 18 19  1  0  0  0
 19 20  2  0  0  0
 20 15  1  0  0  0
 14  7  1  0  0  0
 21 25  1  0  0  0
 21 26  1  0  0  0
  1  5  1  0  0  0
  4  6  1  0  0  0
M  END
> <minimizedAffinity>
-7.11933

> <CNNscore>
0.4605358541

> <CNNaffinity>
5.5161833763

> <CNN_VS>
2.5404002666

> <CNNaffinity_variance>
0.0921604633

$$$$
[H]c1c([H])c(N([H])C(=O)N([H])c2c([H])c([H])c(S(=O)(=O)N([H])[H])c([H])c2[H])c([H])c(Cl)c1Cl


 26 27  0  0  0  0  0  0  0  0999 V2000
   -0.3585  -53.5738  -22.4696 N   0  0  0  0  0  0  0  0  0  0  0  0
   -0.0156  -52.8001  -21.3380 C   0  0  0  0  0  0  0  0  0  0  0  0
    0.8948  -51.9578  -21.4800 O   0  0  0  0  0  0  0  0  0  0  0  0
   -0.6940  -52.9954  -20.1101 N   0  0  0  0  0  0  0  0  0  0  0  0
   -1.1412  -54.3003  -22.3274 H   0  0  0  0  0  0  0  0  0  0  0  0
   -1.4567  -53.7411  -20.0951 H   0  0  0  0  0  0  0  0  0  0  0  0
   -0.4560  -52.3089  -18.9159 C   0  0  0  0  0  0  0  0  0  0  0  0
   -0.9336  -52.6298  -17.6698 C   0  0  0  0  0  0  0  0  0  0  0  0
   -0.6331  -51.8992  -16.5140 C   0  0  0  0  0  0  0  0  0  0  0  0
    0.1746  -50.7978  -16.5755 C   0  0  0  0  0  0  0  0  0  0  0  0
    0.5904  -49.8403  -15.1722 Cl  0  0  0  0  0  0  0  0  0  0  0  0
    0.6664  -50.4535  -17.8120 C   0  0  0  0  0  0  0  0  0  0  0  0
    1.7077  -49.0357  -17.9019 Cl  0  0  0  0  0  0  0  0  0  0  0  0
    0.3708  -51.1711  -18.9429 C   0  0  0  0  0  0  0  0  0  0  0  0
    1.2163  -53.2513  -26.4170 C   0  0  0  0  0  0  0  0  0  0  0  0
   -0.0420  -53.7353  -26.1382 C   0  0  0  0  0  0  0  0  0  0  0  0
   -0.5275  -53.8396  -24.8590 C   0  0  0  0  0  0  0  0  0  0  0  0
    0.2451  -53.4515  -23.7376 C   0  0  0  0  0  0  0  0  0  0  0  0
    1.4929  -52.9709  -24.0200 C   0  0  0  0  0  0  0  0  0  0  0  0
    1.9766  -52.8706  -25.3397 C   0  0  0  0  0  0  0  0  0  0  0  0
    3.1343  -52.0539  -28.0701 N   0  0  0  0  0  0  0  0  0  0  0  0
    1.7858  -53.1402  -28.0661 S   0  0  0  0  0  0  0  0  0  0  0  0
    0.6701  -52.6460  -28.9145 O   0  0  0  0  0  0  0  0  0  0  0  0
    2.2732  -54.4581  -28.5843 O   0  0  0  0  0  0  0  0  0  0  0  0
    4.0203  -52.5100  -27.8369 H   0  0  0  0  0  0  0  0  0  0  0  0
    2.9370  -51.1934  -27.5183 H   0  0  0  0  0  0  0  0  0  0  0  0
 21 22  1  0  0  0
 22 23  2  0  0  0
 22 24  2  0  0  0
 22 15  1  0  0  0
 15 16  2  0  0  0
 16 17  1  0  0  0
 17 18  2  0  0  0
 18  1  1  0  0  0
  1  2  1  0  0  0
  2  3  2  0  0  0
  2  4  1  0  0  0
  4  7  1  0  0  0
  7  8  2  0  0  0
  8  9  1  0  0  0
  9 10  2  0  0  0
 10 11  1  0  0  0
 10 12  1  0  0  0
 12 13  1  0  0  0
 12 14  2  0  0  0
 18 19  1  0  0  0
 19 20  2  0  0  0
 20 15  1  0  0  0
 14  7  1  0  0  0
 21 25  1  0  0  0
 21 26  1  0  0  0
  1  5  1  0  0  0
  4  6  1  0  0  0
M  END
> <minimizedAffinity>
-7.82829

> <CNNscore>
0.4105198383

> <CNNaffinity>
6.0234718323

> <CNN_VS>
2.4727547169

> <CNNaffinity_variance>
0.1402059346

$$$$
[H]c1c([H])c(N([H])C(=O)N([H])c2c([H])c([H])c(S(=O)(=O)N([H])[H])c([H])c2[H])c([H])c(Cl)c1Cl


 26 27  0  0  0  0  0  0  0  0999 V2000
    2.4265  -50.8627  -22.4909 N   0  0  0  0  0  0  0  0  0  0  0  0
    1.3158  -51.2845  -23.2558 C   0  0  0  0  0  0  0  0  0  0  0  0
    0.3170  -51.6946  -22.6293 O   0  0  0  0  0  0  0  0  0  0  0  0
    1.3645  -51.2321  -24.6704 N   0  0  0  0  0  0  0  0  0  0  0  0
    3.2821  -50.5185  -23.0478 H   0  0  0  0  0  0  0  0  0  0  0  0
    2.2658  -50.8652  -25.1075 H   0  0  0  0  0  0  0  0  0  0  0  0
    0.3475  -51.6201  -25.5475 C   0  0  0  0  0  0  0  0  0  0  0  0
   -1.0039  -51.5897  -25.3097 C   0  0  0  0  0  0  0  0  0  0  0  0
   -1.9642  -51.9794  -26.2509 C   0  0  0  0  0  0  0  0  0  0  0  0
   -1.5882  -52.4225  -27.4885 C   0  0  0  0  0  0  0  0  0  0  0  0
   -2.7341  -52.9243  -28.7108 Cl  0  0  0  0  0  0  0  0  0  0  0  0
   -0.2399  -52.4636  -27.7529 C   0  0  0  0  0  0  0  0  0  0  0  0
    0.2549  -53.0334  -29.3445 Cl  0  0  0  0  0  0  0  0  0  0  0  0
    0.6990  -52.0809  -26.8292 C   0  0  0  0  0  0  0  0  0  0  0  0
    2.8373  -50.7611  -18.2498 C   0  0  0  0  0  0  0  0  0  0  0  0
    3.8885  -50.5773  -19.1195 C   0  0  0  0  0  0  0  0  0  0  0  0
    3.7370  -50.6226  -20.4826 C   0  0  0  0  0  0  0  0  0  0  0  0
    2.4771  -50.8638  -21.0821 C   0  0  0  0  0  0  0  0  0  0  0  0
    1.4370  -51.0447  -20.2144 C   0  0  0  0  0  0  0  0  0  0  0  0
    1.6095  -50.9954  -18.8167 C   0  0  0  0  0  0  0  0  0  0  0  0
    1.5691  -51.0619  -15.7705 N   0  0  0  0  0  0  0  0  0  0  0  0
    3.0859  -50.6938  -16.5207 S   0  0  0  0  0  0  0  0  0  0  0  0
    3.5649  -49.3316  -16.1692 O   0  0  0  0  0  0  0  0  0  0  0  0
    4.0746  -51.7169  -16.0530 O   0  0  0  0  0  0  0  0  0  0  0  0
    1.4035  -52.0666  -15.6676 H   0  0  0  0  0  0  0  0  0  0  0  0
    0.7841  -50.5413  -16.2139 H   0  0  0  0  0  0  0  0  0  0  0  0
 21 22  1  0  0  0
 22 23  2  0  0  0
 22 24  2  0  0  0
 22 15  1  0  0  0
 15 16  2  0  0  0
 16 17  1  0  0  0
 17 18  2  0  0  0
 18  1  1  0  0  0
  1  2  1  0  0  0
  2  3  2  0  0  0
  2  4  1  0  0  0
  4  7  1  0  0  0
  7  8  2  0  0  0
  8  9  1  0  0  0
  9 10  2  0  0  0
 10 11  1  0  0  0
 10 12  1  0  0  0
 12 13  1  0  0  0
 12 14  2  0  0  0
 18 19  1  0  0  0
 19 20  2  0  0  0
 20 15  1  0  0  0
 14  7  1  0  0  0
 21 25  1  0  0  0
 21 26  1  0  0  0
  1  5  1  0  0  0
  4  6  1  0  0  0
M  END
> <minimizedAffinity>
-6.45512

> <CNNscore>
0.3787041903

> <CNNaffinity>
5.4910478592

> <CNN_VS>
2.0794827938

> <CNNaffinity_variance>
0.1897548735

$$$$
[H]c1c([H])c(N([H])C(=O)N([H])c2c([H])c([H])c(S(=O)(=O)N([H])[H])c([H])c2[H])c([H])c(Cl)c1Cl


 26 27  0  0  0  0  0  0  0  0999 V2000
   -0.4601  -54.1491  -20.4112 N   0  0  0  0  0  0  0  0  0  0  0  0
   -0.7800  -53.0865  -19.5364 C   0  0  0  0  0  0  0  0  0  0  0  0
   -0.8604  -51.9447  -20.0347 O   0  0  0  0  0  0  0  0  0  0  0  0
   -0.9945  -53.3384  -18.1592 N   0  0  0  0  0  0  0  0  0  0  0  0
   -0.3882  -55.1263  -19.9633 H   0  0  0  0  0  0  0  0  0  0  0  0
   -0.9017  -54.3504  -17.8350 H   0  0  0  0  0  0  0  0  0  0  0  0
   -1.3103  -52.3875  -17.1844 C   0  0  0  0  0  0  0  0  0  0  0  0
   -0.4806  -51.4196  -16.6759 C   0  0  0  0  0  0  0  0  0  0  0  0
   -0.8792  -50.4879  -15.7101 C   0  0  0  0  0  0  0  0  0  0  0  0
   -2.1529  -50.5000  -15.2131 C   0  0  0  0  0  0  0  0  0  0  0  0
   -2.7170  -49.3664  -14.0066 Cl  0  0  0  0  0  0  0  0  0  0  0  0
   -3.0049  -51.4600  -15.7050 C   0  0  0  0  0  0  0  0  0  0  0  0
   -4.6480  -51.4844  -15.0709 Cl  0  0  0  0  0  0  0  0  0  0  0  0
   -2.6120  -52.3716  -16.6515 C   0  0  0  0  0  0  0  0  0  0  0  0
   -0.0148  -53.8857  -24.6418 C   0  0  0  0  0  0  0  0  0  0  0  0
   -0.8612  -54.7765  -24.0210 C   0  0  0  0  0  0  0  0  0  0  0  0
   -0.9837  -54.8517  -22.6564 C   0  0  0  0  0  0  0  0  0  0  0  0
   -0.2388  -54.0088  -21.7963 C   0  0  0  0  0  0  0  0  0  0  0  0
    0.5990  -53.1259  -22.4177 C   0  0  0  0  0  0  0  0  0  0  0  0
    0.7134  -53.0616  -23.8207 C   0  0  0  0  0  0  0  0  0  0  0  0
   -1.3203  -53.0390  -26.9708 N   0  0  0  0  0  0  0  0  0  0  0  0
    0.1034  -53.8321  -26.3852 S   0  0  0  0  0  0  0  0  0  0  0  0
    0.2121  -55.2256  -26.8903 O   0  0  0  0  0  0  0  0  0  0  0  0
    1.2818  -53.0309  -26.8461 O   0  0  0  0  0  0  0  0  0  0  0  0
   -1.2411  -52.0186  -26.9738 H   0  0  0  0  0  0  0  0  0  0  0  0
   -2.1801  -53.4008  -26.5087 H   0  0  0  0  0  0  0  0  0  0  0  0
 21 22  1  0  0  0
 22 23  2  0  0  0
 22 24  2  0  0  0
 22 15  1  0  0  0
 15 16  2  0  0  0
 16 17  1  0  0  0
 17 18  2  0  0  0
 18  1  1  0  0  0
  1  2  1  0  0  0
  2  3  2  0  0  0
  2  4  1  0  0  0
  4  7  1  0  0  0
  7  8  2  0  0  0
  8  9  1  0  0  0
  9 10  2  0  0  0
 10 11  1  0  0  0
 10 12  1  0  0  0
 12 13  1  0  0  0
 12 14  2  0  0  0
 18 19  1  0  0  0
 19 20  2  0  0  0
 20 15  1  0  0  0
 14  7  1  0  0  0
 21 25  1  0  0  0
 21 26  1  0  0  0
  1  5  1  0  0  0
  4  6  1  0  0  0
M  END
> <minimizedAffinity>
-7.72793

> <CNNscore>
0.3720483780

> <CNNaffinity>
5.6071553230

> <CNN_VS>
2.0861330032

> <CNNaffinity_variance>
0.0612846389

$$$$
[H]c1c([H])c(N([H])C(=O)N([H])c2c([H])c([H])c(S(=O)(=O)N([H])[H])c([H])c2[H])c([H])c(Cl)c1Cl


 26 27  0  0  0  0  0  0  0  0999 V2000
    3.7625  -50.0455  -23.4621 N   0  0  0  0  0  0  0  0  0  0  0  0
    2.7035  -50.2772  -22.5557 C   0  0  0  0  0  0  0  0  0  0  0  0
    1.6667  -49.5987  -22.7076 O   0  0  0  0  0  0  0  0  0  0  0  0
    2.8430  -51.2441  -21.5302 N   0  0  0  0  0  0  0  0  0  0  0  0
    4.6519  -50.6347  -23.3122 H   0  0  0  0  0  0  0  0  0  0  0  0
    3.7703  -51.7698  -21.4874 H   0  0  0  0  0  0  0  0  0  0  0  0
    1.8847  -51.5711  -20.5664 C   0  0  0  0  0  0  0  0  0  0  0  0
    1.8131  -51.0984  -19.2798 C   0  0  0  0  0  0  0  0  0  0  0  0
    0.8067  -51.4612  -18.3769 C   0  0  0  0  0  0  0  0  0  0  0  0
   -0.1817  -52.3306  -18.7466 C   0  0  0  0  0  0  0  0  0  0  0  0
   -1.4681  -52.8259  -17.6702 Cl  0  0  0  0  0  0  0  0  0  0  0  0
   -0.1336  -52.8199  -20.0303 C   0  0  0  0  0  0  0  0  0  0  0  0
   -1.4023  -53.9410  -20.5162 Cl  0  0  0  0  0  0  0  0  0  0  0  0
    0.8534  -52.4627  -20.9131 C   0  0  0  0  0  0  0  0  0  0  0  0
    3.5506  -47.4436  -26.8312 C   0  0  0  0  0  0  0  0  0  0  0  0
    3.4484  -48.8135  -26.9216 C   0  0  0  0  0  0  0  0  0  0  0  0
    3.5282  -49.6349  -25.8253 C   0  0  0  0  0  0  0  0  0  0  0  0
    3.7225  -49.1169  -24.5219 C   0  0  0  0  0  0  0  0  0  0  0  0
    3.8222  -47.7565  -24.4376 C   0  0  0  0  0  0  0  0  0  0  0  0
    3.7386  -46.9270  -25.5737 C   0  0  0  0  0  0  0  0  0  0  0  0
    3.7955  -47.4546  -29.6214 N   0  0  0  0  0  0  0  0  0  0  0  0
    3.4426  -46.4432  -28.2608 S   0  0  0  0  0  0  0  0  0  0  0  0
    4.4172  -45.3291  -28.1275 O   0  0  0  0  0  0  0  0  0  0  0  0
    2.0644  -45.8920  -28.4604 O   0  0  0  0  0  0  0  0  0  0  0  0
    2.9788  -47.9662  -29.9661 H   0  0  0  0  0  0  0  0  0  0  0  0
    4.6334  -48.0488  -29.4523 H   0  0  0  0  0  0  0  0  0  0  0  0
 21 22  1  0  0  0
 22 23  2  0  0  0
 22 24  2  0  0  0
 22 15  1  0  0  0
 15 16  2  0  0  0
 16 17  1  0  0  0
 17 18  2  0  0  0
 18  1  1  0  0  0
  1  2  1  0  0  0
  2  3  2  0  0  0
  2  4  1  0  0  0
  4  7  1  0  0  0
  7  8  2  0  0  0
  8  9  1  0  0  0
  9 10  2  0  0  0
 10 11  1  0  0  0
 10 12  1  0  0  0
 12 13  1  0  0  0
 12 14  2  0  0  0
 18 19  1  0  0  0
 19 20  2  0  0  0
 20 15  1  0  0  0
 14  7  1  0  0  0
 21 25  1  0  0  0
 21 26  1  0  0  0
  1  5  1  0  0  0
  4  6  1  0  0  0
M  END
> <minimizedAffinity>
-5.71491

> <CNNscore>
0.3392281234

> <CNNaffinity>
5.2460303307

> <CNN_VS>
1.7796009779

> <CNNaffinity_variance>
0.0981822461

$$$$
[H]c1c([H])c(N([H])C(=O)N([H])c2c([H])c([H])c(S(=O)(=O)N([H])[H])c([H])c2[H])c([H])c(Cl)c1Cl


 26 27  0  0  0  0  0  0  0  0999 V2000
    3.9979  -52.1394  -23.8311 N   0  0  0  0  0  0  0  0  0  0  0  0
    2.8581  -51.9859  -24.6522 C   0  0  0  0  0  0  0  0  0  0  0  0
    2.0718  -51.0596  -24.3657 O   0  0  0  0  0  0  0  0  0  0  0  0
    2.6453  -52.8611  -25.7453 N   0  0  0  0  0  0  0  0  0  0  0  0
    4.6619  -52.9478  -24.0886 H   0  0  0  0  0  0  0  0  0  0  0  0
    3.3780  -53.6200  -25.9038 H   0  0  0  0  0  0  0  0  0  0  0  0
    1.5650  -52.8287  -26.6319 C   0  0  0  0  0  0  0  0  0  0  0  0
    1.5806  -53.1566  -27.9646 C   0  0  0  0  0  0  0  0  0  0  0  0
    0.4469  -53.1161  -28.7849 C   0  0  0  0  0  0  0  0  0  0  0  0
   -0.7657  -52.7358  -28.2805 C   0  0  0  0  0  0  0  0  0  0  0  0
   -2.2209  -52.6631  -29.2480 Cl  0  0  0  0  0  0  0  0  0  0  0  0
   -0.8095  -52.4014  -26.9480 C   0  0  0  0  0  0  0  0  0  0  0  0
   -2.3670  -51.9096  -26.2886 Cl  0  0  0  0  0  0  0  0  0  0  0  0
    0.3027  -52.4421  -26.1463 C   0  0  0  0  0  0  0  0  0  0  0  0
    5.0104  -49.4567  -20.6778 C   0  0  0  0  0  0  0  0  0  0  0  0
    5.3398  -49.2380  -21.9965 C   0  0  0  0  0  0  0  0  0  0  0  0
    5.0122  -50.1189  -22.9963 C   0  0  0  0  0  0  0  0  0  0  0  0
    4.3085  -51.3180  -22.7284 C   0  0  0  0  0  0  0  0  0  0  0  0
    3.9832  -51.5298  -21.4181 C   0  0  0  0  0  0  0  0  0  0  0  0
    4.3275  -50.6150  -20.4030 C   0  0  0  0  0  0  0  0  0  0  0  0
    5.1867  -46.7216  -20.1003 N   0  0  0  0  0  0  0  0  0  0  0  0
    5.4530  -48.3013  -19.4428 S   0  0  0  0  0  0  0  0  0  0  0  0
    6.8783  -48.5221  -19.0841 O   0  0  0  0  0  0  0  0  0  0  0  0
    4.5961  -48.4260  -18.2209 O   0  0  0  0  0  0  0  0  0  0  0  0
    4.2204  -46.4002  -19.9987 H   0  0  0  0  0  0  0  0  0  0  0  0
    5.5671  -46.6374  -21.0657 H   0  0  0  0  0  0  0  0  0  0  0  0
 21 22  1  0  0  0
 22 23  2  0  0  0
 22 24  2  0  0  0
 22 15  1  0  0  0
 15 16  2  0  0  0
 16 17  1  0  0  0
 17 18  2  0  0  0
 18  1  1  0  0  0
  1  2  1  0  0  0
  2  3  2  0  0  0
  2  4  1  0  0  0
  4  7  1  0  0  0
  7  8  2  0  0  0
  8  9  1  0  0  0
  9 10  2  0  0  0
 10 11  1  0  0  0
 10 12  1  0  0  0
 12 13  1  0  0  0
 12 14  2  0  0  0
 18 19  1  0  0  0
 19 20  2  0  0  0
 20 15  1  0  0  0
 14  7  1  0  0  0
 21 25  1  0  0  0
 21 26  1  0  0  0
  1  5  1  0  0  0
  4  6  1  0  0  0
M  END
> <minimizedAffinity>
-5.84962

> <CNNscore>
0.3177766502

> <CNNaffinity>
5.4079952240

> <CNN_VS>
1.7185345888

> <CNNaffinity_variance>
0.0876918808

$$$$
[H]OC([H])([H])[C@]1([H])ON(c2nc([H])nc3c([H])c([H])c(OC([H])([H])C([H])([H])[H])c([H])c23)O[C@@]([H])(C([H])([H])OP(=O)(O[H])O[H])[C@]([H])(O[H])[C@@]([H])(O[H])[C@@]([H])(O[H])[C@@]1([H])O[H]


 41 43  0  0  0  0  0  0  0  0999 V2000
    1.7733  -52.7776  -23.8680 N   0  0  0  0  0  0  0  0  0  0  0  0
    1.5279  -51.7732  -24.7784 O   0  0  0  0  0  0  0  0  0  0  0  0
    1.5856  -52.3056  -26.0306 C   0  0  0  0  0  0  0  0  0  0  0  0
    2.3882  -51.5648  -27.0454 C   0  0  0  0  0  0  0  0  0  0  0  0
    3.3003  -52.3944  -27.7102 O   0  0  0  0  0  0  0  0  0  0  0  0
    2.9449  -50.2737  -26.6201 C   0  0  0  0  0  0  0  0  0  0  0  0
    3.7737  -49.7949  -27.6633 O   0  0  0  0  0  0  0  0  0  0  0  0
    3.6487  -50.1544  -25.3240 C   0  0  0  0  0  0  0  0  0  0  0  0
    4.5708  -49.1138  -25.4593 O   0  0  0  0  0  0  0  0  0  0  0  0
    4.3291  -51.3528  -24.8032 C   0  0  0  0  0  0  0  0  0  0  0  0
    5.6709  -51.1150  -24.5386 O   0  0  0  0  0  0  0  0  0  0  0  0
    3.7299  -51.8048  -23.4608 C   0  0  0  0  0  0  0  0  0  0  0  0
    3.0531  -53.0045  -23.6096 O   0  0  0  0  0  0  0  0  0  0  0  0
    2.9190  -52.9020  -28.4398 H   0  0  0  0  0  0  0  0  0  0  0  0
    4.3630  -50.4857  -28.0252 H   0  0  0  0  0  0  0  0  0  0  0  0
    5.1387  -49.3290  -26.2348 H   0  0  0  0  0  0  0  0  0  0  0  0
    5.9582  -50.1915  -24.5528 H   0  0  0  0  0  0  0  0  0  0  0  0
    0.6006  -52.2189  -19.8068 C   0  0  0  0  0  0  0  0  0  0  0  0
   -0.5342  -52.8805  -19.3194 C   0  0  0  0  0  0  0  0  0  0  0  0
   -1.2317  -53.6825  -20.1803 C   0  0  0  0  0  0  0  0  0  0  0  0
   -0.8467  -53.8413  -21.4724 C   0  0  0  0  0  0  0  0  0  0  0  0
   -1.5574  -54.6376  -22.2704 N   0  0  0  0  0  0  0  0  0  0  0  0
   -1.2177  -54.8319  -23.5496 C   0  0  0  0  0  0  0  0  0  0  0  0
   -0.1464  -54.2233  -24.0566 N   0  0  0  0  0  0  0  0  0  0  0  0
    0.6388  -53.3925  -23.3174 C   0  0  0  0  0  0  0  0  0  0  0  0
    0.2866  -53.1965  -22.0048 C   0  0  0  0  0  0  0  0  0  0  0  0
    0.9813  -52.4021  -21.1570 C   0  0  0  0  0  0  0  0  0  0  0  0
    1.2997  -51.4434  -19.0373 O   0  0  0  0  0  0  0  0  0  0  0  0
    1.4684  -49.2360  -18.1896 C   0  0  0  0  0  0  0  0  0  0  0  0
    2.0086  -50.6741  -18.2757 C   0  0  0  0  0  0  0  0  0  0  0  0
    0.1455  -52.5403  -26.5089 C   0  0  0  0  0  0  0  0  0  0  0  0
    0.0176  -53.8731  -26.9160 O   0  0  0  0  0  0  0  0  0  0  0  0
   -0.8510  -54.0603  -27.3182 H   0  0  0  0  0  0  0  0  0  0  0  0
    4.8158  -51.9361  -22.4026 C   0  0  0  0  0  0  0  0  0  0  0  0
    4.4329  -51.3995  -21.1890 O   0  0  0  0  0  0  0  0  0  0  0  0
    4.4405  -49.7284  -21.2018 P   0  0  0  0  0  0  0  0  0  0  0  0
    3.0247  -49.2024  -21.3803 O   0  0  0  0  0  0  0  0  0  0  0  0
    4.9816  -49.1502  -19.6953 O   0  0  0  0  0  0  0  0  0  0  0  0
    5.4266  -49.0695  -22.4012 O   0  0  0  0  0  0  0  0  0  0  0  0
    4.7208  -49.8213  -19.0042 H   0  0  0  0  0  0  0  0  0  0  0  0
    5.2615  -48.0898  -22.3802 H   0  0  0  0  0  0  0  0  0  0  0  0
 29 30  1  0  0  0
 30 28  1  0  0  0
 28 18  1  0  0  0
 18 19  2  0  0  0
 19 20  1  0  0  0
 20 21  2  0  0  0
 21 22  1  0  0  0
 22 23  2  0  0  0
 23 24  1  0  0  0
 24 25  2  0  0  0
 25  1  1  0  0  0
  1  2  1  0  0  0
  2  3  1  0  0  0
  3 31  1  0  0  0
 31 32  1  0  0  0
  3  4  1  0  0  0
  4  5  1  0  0  0
  4  6  1  0  0  0
  6  7  1  0  0  0
  6  8  1  0  0  0
  8  9  1  0  0  0
  8 10  1  0  0  0
 10 11  1  0  0  0
 10 12  1  0  0  0
 12 34  1  0  0  0
 34 35  1  0  0  0
 35 36  1  0  0  0
 36 37  2  0  0  0
 36 38  1  0  0  0
 36 39  1  0  0  0
 12 13  1  0  0  0
 25 26  1  0  0  0
 26 27  2  0  0  0
 27 18  1  0  0  0
 26 21  1  0  0  0
 13  1  1  0  0  0
 32 33  1  0  0  0
  5 14  1  0  0  0
  7 15  1  0  0  0
  9 16  1  0  0  0
 11 17  1  0  0  0
 38 40  1  0  0  0
 39 41  1  0  0  0
M  END
> <minimizedAffinity>
-7.82460

> <CNNscore>
0.7043028474

> <CNNaffinity>
5.6195893288

> <CNN_VS>
3.9578926563

> <CNNaffinity_variance>
0.1903877556

$$$$
[H]OC([H])([H])[C@]1([H])ON(c2nc([H])nc3c([H])c([H])c(OC([H])([H])C([H])([H])[H])c([H])c23)O[C@@]([H])(C([H])([H])OP(=O)(O[H])O[H])[C@]([H])(O[H])[C@@]([H])(O[H])[C@@]([H])(O[H])[C@@]1([H])O[H]


 41 43  0  0  0  0  0  0  0  0999 V2000
    1.4696  -51.5844  -21.4916 N   0  0  0  0  0  0  0  0  0  0  0  0
    2.1190  -51.3457  -20.3002 O   0  0  0  0  0  0  0  0  0  0  0  0
    1.4970  -50.3094  -19.6726 C   0  0  0  0  0  0  0  0  0  0  0  0
    2.3660  -49.2270  -19.1285 C   0  0  0  0  0  0  0  0  0  0  0  0
    1.9454  -47.9538  -19.5337 O   0  0  0  0  0  0  0  0  0  0  0  0
    3.8155  -49.4439  -19.2264 C   0  0  0  0  0  0  0  0  0  0  0  0
    4.4606  -48.2636  -18.7843 O   0  0  0  0  0  0  0  0  0  0  0  0
    4.4182  -49.8999  -20.4985 C   0  0  0  0  0  0  0  0  0  0  0  0
    5.7300  -49.4199  -20.5189 O   0  0  0  0  0  0  0  0  0  0  0  0
    3.7362  -49.5271  -21.7500 C   0  0  0  0  0  0  0  0  0  0  0  0
    4.5822  -48.8574  -22.6234 O   0  0  0  0  0  0  0  0  0  0  0  0
    3.2595  -50.7669  -22.5251 C   0  0  0  0  0  0  0  0  0  0  0  0
    1.8763  -50.8456  -22.5138 O   0  0  0  0  0  0  0  0  0  0  0  0
    1.2236  -47.5857  -19.0057 H   0  0  0  0  0  0  0  0  0  0  0  0
    4.0617  -47.4526  -19.1567 H   0  0  0  0  0  0  0  0  0  0  0  0
    5.6833  -48.4438  -20.3948 H   0  0  0  0  0  0  0  0  0  0  0  0
    5.5244  -48.8652  -22.4053 H   0  0  0  0  0  0  0  0  0  0  0  0
    0.2901  -53.7298  -24.9825 C   0  0  0  0  0  0  0  0  0  0  0  0
   -0.7011  -54.7151  -24.8844 C   0  0  0  0  0  0  0  0  0  0  0  0
   -1.2506  -54.9558  -23.6552 C   0  0  0  0  0  0  0  0  0  0  0  0
   -0.8559  -54.2674  -22.5538 C   0  0  0  0  0  0  0  0  0  0  0  0
   -1.4256  -54.5359  -21.3793 N   0  0  0  0  0  0  0  0  0  0  0  0
   -1.0762  -53.8827  -20.2653 C   0  0  0  0  0  0  0  0  0  0  0  0
   -0.1380  -52.9378  -20.3107 N   0  0  0  0  0  0  0  0  0  0  0  0
    0.4982  -52.5963  -21.4647 C   0  0  0  0  0  0  0  0  0  0  0  0
    0.1360  -53.2689  -22.6056 C   0  0  0  0  0  0  0  0  0  0  0  0
    0.6829  -53.0258  -23.8199 C   0  0  0  0  0  0  0  0  0  0  0  0
    0.8489  -53.4601  -26.1215 O   0  0  0  0  0  0  0  0  0  0  0  0
    0.3755  -52.9263  -28.3822 C   0  0  0  0  0  0  0  0  0  0  0  0
    1.3969  -53.1815  -27.2601 C   0  0  0  0  0  0  0  0  0  0  0  0
    0.5797  -50.8970  -18.5906 C   0  0  0  0  0  0  0  0  0  0  0  0
    0.3912  -49.9371  -17.5898 O   0  0  0  0  0  0  0  0  0  0  0  0
   -0.1084  -50.2839  -16.8274 H   0  0  0  0  0  0  0  0  0  0  0  0
    3.7775  -50.7402  -23.9560 C   0  0  0  0  0  0  0  0  0  0  0  0
    2.8838  -50.1474  -24.8261 O   0  0  0  0  0  0  0  0  0  0  0  0
    3.6455  -49.4300  -26.1292 P   0  0  0  0  0  0  0  0  0  0  0  0
    3.0665  -48.0450  -26.3732 O   0  0  0  0  0  0  0  0  0  0  0  0
    5.2942  -49.2056  -25.7718 O   0  0  0  0  0  0  0  0  0  0  0  0
    3.5351  -50.3299  -27.5516 O   0  0  0  0  0  0  0  0  0  0  0  0
    5.3734  -49.0761  -24.7854 H   0  0  0  0  0  0  0  0  0  0  0  0
    3.9205  -49.7565  -28.2660 H   0  0  0  0  0  0  0  0  0  0  0  0
 29 30  1  0  0  0
 30 28  1  0  0  0
 28 18  1  0  0  0
 18 19  2  0  0  0
 19 20  1  0  0  0
 20 21  2  0  0  0
 21 22  1  0  0  0
 22 23  2  0  0  0
 23 24  1  0  0  0
 24 25  2  0  0  0
 25  1  1  0  0  0
  1  2  1  0  0  0
  2  3  1  0  0  0
  3 31  1  0  0  0
 31 32  1  0  0  0
  3  4  1  0  0  0
  4  5  1  0  0  0
  4  6  1  0  0  0
  6  7  1  0  0  0
  6  8  1  0  0  0
  8  9  1  0  0  0
  8 10  1  0  0  0
 10 11  1  0  0  0
 10 12  1  0  0  0
 12 34  1  0  0  0
 34 35  1  0  0  0
 35 36  1  0  0  0
 36 37  2  0  0  0
 36 38  1  0  0  0
 36 39  1  0  0  0
 12 13  1  0  0  0
 25 26  1  0  0  0
 26 27  2  0  0  0
 27 18  1  0  0  0
 26 21  1  0  0  0
 13  1  1  0  0  0
 32 33  1  0  0  0
  5 14  1  0  0  0
  7 15  1  0  0  0
  9 16  1  0  0  0
 11 17  1  0  0  0
 38 40  1  0  0  0
 39 41  1  0  0  0
M  END
> <minimizedAffinity>
-7.87126

> <CNNscore>
0.6840896010

> <CNNaffinity>
5.5770907402

> <CNN_VS>
3.8152298927

> <CNNaffinity_variance>
0.1487833261

$$$$
[H]OC([H])([H])[C@]1([H])ON(c2nc([H])nc3c([H])c([H])c(OC([H])([H])C([H])([H])[H])c([H])c23)O[C@@]([H])(C([H])([H])OP(=O)(O[H])O[H])[C@]([H])(O[H])[C@@]([H])(O[H])[C@@]([H])(O[H])[C@@]1([H])O[H]


 41 43  0  0  0  0  0  0  0  0999 V2000
    1.6018  -52.3290  -23.2507 N   0  0  0  0  0  0  0  0  0  0  0  0
    1.3244  -51.6323  -24.4065 O   0  0  0  0  0  0  0  0  0  0  0  0
    1.7355  -52.3804  -25.4676 C   0  0  0  0  0  0  0  0  0  0  0  0
    2.5383  -51.6869  -26.5150 C   0  0  0  0  0  0  0  0  0  0  0  0
    3.7188  -52.3756  -26.8225 O   0  0  0  0  0  0  0  0  0  0  0  0
    2.7100  -50.2373  -26.3512 C   0  0  0  0  0  0  0  0  0  0  0  0
    3.6001  -49.7903  -27.3574 O   0  0  0  0  0  0  0  0  0  0  0  0
    3.1088  -49.6757  -25.0416 C   0  0  0  0  0  0  0  0  0  0  0  0
    3.7922  -48.4858  -25.3036 O   0  0  0  0  0  0  0  0  0  0  0  0
    3.9194  -50.5254  -24.1521 C   0  0  0  0  0  0  0  0  0  0  0  0
    5.1015  -49.9034  -23.7742 O   0  0  0  0  0  0  0  0  0  0  0  0
    3.1858  -50.8263  -22.8344 C   0  0  0  0  0  0  0  0  0  0  0  0
    2.8263  -52.1629  -22.7720 O   0  0  0  0  0  0  0  0  0  0  0  0
    3.6039  -53.1037  -27.4485 H   0  0  0  0  0  0  0  0  0  0  0  0
    4.3834  -50.3674  -27.4527 H   0  0  0  0  0  0  0  0  0  0  0  0
    4.5314  -48.7051  -25.9165 H   0  0  0  0  0  0  0  0  0  0  0  0
    5.1793  -48.9610  -23.9776 H   0  0  0  0  0  0  0  0  0  0  0  0
    0.2287  -51.8798  -19.2391 C   0  0  0  0  0  0  0  0  0  0  0  0
   -0.8218  -52.6827  -18.7757 C   0  0  0  0  0  0  0  0  0  0  0  0
   -1.3750  -53.5837  -19.6435 C   0  0  0  0  0  0  0  0  0  0  0  0
   -0.9289  -53.7062  -20.9198 C   0  0  0  0  0  0  0  0  0  0  0  0
   -1.4981  -54.6025  -21.7252 N   0  0  0  0  0  0  0  0  0  0  0  0
   -1.0925  -54.7662  -22.9895 C   0  0  0  0  0  0  0  0  0  0  0  0
   -0.0971  -54.0245  -23.4735 N   0  0  0  0  0  0  0  0  0  0  0  0
    0.5432  -53.0848  -22.7251 C   0  0  0  0  0  0  0  0  0  0  0  0
    0.1238  -52.9207  -21.4279 C   0  0  0  0  0  0  0  0  0  0  0  0
    0.6758  -52.0278  -20.5732 C   0  0  0  0  0  0  0  0  0  0  0  0
    0.7902  -51.0061  -18.4621 O   0  0  0  0  0  0  0  0  0  0  0  0
    0.3494  -49.3838  -16.7906 C   0  0  0  0  0  0  0  0  0  0  0  0
    1.3513  -50.1439  -17.6771 C   0  0  0  0  0  0  0  0  0  0  0  0
    0.4998  -53.0690  -26.0647 C   0  0  0  0  0  0  0  0  0  0  0  0
   -0.6041  -52.2217  -25.9160 O   0  0  0  0  0  0  0  0  0  0  0  0
   -1.4392  -52.6423  -26.1931 H   0  0  0  0  0  0  0  0  0  0  0  0
    4.0503  -50.4532  -21.6386 C   0  0  0  0  0  0  0  0  0  0  0  0
    3.3463  -49.7484  -20.6822 O   0  0  0  0  0  0  0  0  0  0  0  0
    3.7313  -48.1222  -20.6789 P   0  0  0  0  0  0  0  0  0  0  0  0
    5.1765  -47.9300  -20.2456 O   0  0  0  0  0  0  0  0  0  0  0  0
    3.6184  -47.5073  -22.2618 O   0  0  0  0  0  0  0  0  0  0  0  0
    2.7319  -47.1964  -19.6843 O   0  0  0  0  0  0  0  0  0  0  0  0
    3.8318  -48.2528  -22.8901 H   0  0  0  0  0  0  0  0  0  0  0  0
    3.1247  -46.2836  -19.6791 H   0  0  0  0  0  0  0  0  0  0  0  0
 29 30  1  0  0  0
 30 28  1  0  0  0
 28 18  1  0  0  0
 18 19  2  0  0  0
 19 20  1  0  0  0
 20 21  2  0  0  0
 21 22  1  0  0  0
 22 23  2  0  0  0
 23 24  1  0  0  0
 24 25  2  0  0  0
 25  1  1  0  0  0
  1  2  1  0  0  0
  2  3  1  0  0  0
  3 31  1  0  0  0
 31 32  1  0  0  0
  3  4  1  0  0  0
  4  5  1  0  0  0
  4  6  1  0  0  0
  6  7  1  0  0  0
  6  8  1  0  0  0
  8  9  1  0  0  0
  8 10  1  0  0  0
 10 11  1  0  0  0
 10 12  1  0  0  0
 12 34  1  0  0  0
 34 35  1  0  0  0
 35 36  1  0  0  0
 36 37  2  0  0  0
 36 38  1  0  0  0
 36 39  1  0  0  0
 12 13  1  0  0  0
 25 26  1  0  0  0
 26 27  2  0  0  0
 27 18  1  0  0  0
 26 21  1  0  0  0
 13  1  1  0  0  0
 32 33  1  0  0  0
  5 14  1  0  0  0
  7 15  1  0  0  0
  9 16  1  0  0  0
 11 17  1  0  0  0
 38 40  1  0  0  0
 39 41  1  0  0  0
M  END
> <minimizedAffinity>
-7.53914

> <CNNscore>
0.5383355618

> <CNNaffinity>
5.3503713608

> <CNN_VS>
2.8802952766

> <CNNaffinity_variance>
0.3347091377

$$$$
[H]OC([H])([H])[C@]1([H])ON(c2nc([H])nc3c([H])c([H])c(OC([H])([H])C([H])([H])[H])c([H])c23)O[C@@]([H])(C([H])([H])OP(=O)(O[H])O[H])[C@]([H])(O[H])[C@@]([H])(O[H])[C@@]([H])(O[H])[C@@]1([H])O[H]


 41 43  0  0  0  0  0  0  0  0999 V2000
    0.1509  -51.4681  -20.5240 N   0  0  0  0  0  0  0  0  0  0  0  0
    0.8187  -51.7574  -19.3542 O   0  0  0  0  0  0  0  0  0  0  0  0
   -0.0228  -51.5208  -18.3100 C   0  0  0  0  0  0  0  0  0  0  0  0
    0.5203  -50.7319  -17.1674 C   0  0  0  0  0  0  0  0  0  0  0  0
   -0.3162  -49.6659  -16.8125 O   0  0  0  0  0  0  0  0  0  0  0  0
    1.9459  -50.3845  -17.2346 C   0  0  0  0  0  0  0  0  0  0  0  0
    2.2362  -49.5338  -16.1407 O   0  0  0  0  0  0  0  0  0  0  0  0
    2.5194  -49.8201  -18.4764 C   0  0  0  0  0  0  0  0  0  0  0  0
    3.6068  -49.0298  -18.0963 O   0  0  0  0  0  0  0  0  0  0  0  0
    1.6244  -49.0416  -19.3500 C   0  0  0  0  0  0  0  0  0  0  0  0
    2.1209  -47.7701  -19.6022 O   0  0  0  0  0  0  0  0  0  0  0  0
    1.4756  -49.6956  -20.7340 C   0  0  0  0  0  0  0  0  0  0  0  0
    0.1951  -50.1980  -20.8995 O   0  0  0  0  0  0  0  0  0  0  0  0
   -1.0553  -49.9127  -16.2396 H   0  0  0  0  0  0  0  0  0  0  0  0
    1.5673  -48.8313  -16.0203 H   0  0  0  0  0  0  0  0  0  0  0  0
    3.2729  -48.3722  -17.4434 H   0  0  0  0  0  0  0  0  0  0  0  0
    3.0367  -47.6027  -19.3399 H   0  0  0  0  0  0  0  0  0  0  0  0
    1.1739  -52.6333  -24.4959 C   0  0  0  0  0  0  0  0  0  0  0  0
    0.5193  -53.7229  -25.0852 C   0  0  0  0  0  0  0  0  0  0  0  0
   -0.4277  -54.3803  -24.3491 C   0  0  0  0  0  0  0  0  0  0  0  0
   -0.7337  -53.9988  -23.0827 C   0  0  0  0  0  0  0  0  0  0  0  0
   -1.6675  -54.6692  -22.4085 N   0  0  0  0  0  0  0  0  0  0  0  0
   -2.0096  -54.3307  -21.1603 C   0  0  0  0  0  0  0  0  0  0  0  0
   -1.4135  -53.3017  -20.5596 N   0  0  0  0  0  0  0  0  0  0  0  0
   -0.4491  -52.5595  -21.1698 C   0  0  0  0  0  0  0  0  0  0  0  0
   -0.1018  -52.9102  -22.4510 C   0  0  0  0  0  0  0  0  0  0  0  0
    0.8358  -52.2552  -23.1752 C   0  0  0  0  0  0  0  0  0  0  0  0
    2.0827  -51.9735  -25.1449 O   0  0  0  0  0  0  0  0  0  0  0  0
    2.7380  -49.7865  -25.7830 C   0  0  0  0  0  0  0  0  0  0  0  0
    2.9876  -51.3047  -25.7838 C   0  0  0  0  0  0  0  0  0  0  0  0
   -0.5897  -52.8708  -17.8474 C   0  0  0  0  0  0  0  0  0  0  0  0
   -0.8459  -52.8047  -16.4732 O   0  0  0  0  0  0  0  0  0  0  0  0
   -1.1210  -53.6635  -16.1017 H   0  0  0  0  0  0  0  0  0  0  0  0
    1.8019  -48.7006  -21.8384 C   0  0  0  0  0  0  0  0  0  0  0  0
    3.0709  -48.8844  -22.3515 O   0  0  0  0  0  0  0  0  0  0  0  0
    3.7968  -47.4427  -22.7845 P   0  0  0  0  0  0  0  0  0  0  0  0
    2.8442  -46.6140  -23.6324 O   0  0  0  0  0  0  0  0  0  0  0  0
    4.1187  -46.5254  -21.3875 O   0  0  0  0  0  0  0  0  0  0  0  0
    5.2455  -47.6448  -23.6244 O   0  0  0  0  0  0  0  0  0  0  0  0
    3.4249  -46.7576  -20.7087 H   0  0  0  0  0  0  0  0  0  0  0  0
    5.5170  -46.7356  -23.9197 H   0  0  0  0  0  0  0  0  0  0  0  0
 29 30  1  0  0  0
 30 28  1  0  0  0
 28 18  1  0  0  0
 18 19  2  0  0  0
 19 20  1  0  0  0
 20 21  2  0  0  0
 21 22  1  0  0  0
 22 23  2  0  0  0
 23 24  1  0  0  0
 24 25  2  0  0  0
 25  1  1  0  0  0
  1  2  1  0  0  0
  2  3  1  0  0  0
  3 31  1  0  0  0
 31 32  1  0  0  0
  3  4  1  0  0  0
  4  5  1  0  0  0
  4  6  1  0  0  0
  6  7  1  0  0  0
  6  8  1  0  0  0
  8  9  1  0  0  0
  8 10  1  0  0  0
 10 11  1  0  0  0
 10 12  1  0  0  0
 12 34  1  0  0  0
 34 35  1  0  0  0
 35 36  1  0  0  0
 36 37  2  0  0  0
 36 38  1  0  0  0
 36 39  1  0  0  0
 12 13  1  0  0  0
 25 26  1  0  0  0
 26 27  2  0  0  0
 27 18  1  0  0  0
 26 21  1  0  0  0
 13  1  1  0  0  0
 32 33  1  0  0  0
  5 14  1  0  0  0
  7 15  1  0  0  0
  9 16  1  0  0  0
 11 17  1  0  0  0
 38 40  1  0  0  0
 39 41  1  0  0  0
M  END
> <minimizedAffinity>
-7.06250

> <CNNscore>
0.5025347471

> <CNNaffinity>
5.3402132988

> <CNN_VS>
2.6836426258

> <CNNaffinity_variance>
0.0493492857

$$$$
[H]OC([H])([H])[C@]1([H])ON(c2nc([H])nc3c([H])c([H])c(OC([H])([H])C([H])([H])[H])c([H])c23)O[C@@]([H])(C([H])([H])OP(=O)(O[H])O[H])[C@]([H])(O[H])[C@@]([H])(O[H])[C@@]([H])(O[H])[C@@]1([H])O[H]


 41 43  0  0  0  0  0  0  0  0999 V2000
    2.2011  -51.2907  -22.1558 N   0  0  0  0  0  0  0  0  0  0  0  0
    2.7187  -50.3537  -21.2886 O   0  0  0  0  0  0  0  0  0  0  0  0
    1.9071  -49.2603  -21.3040 C   0  0  0  0  0  0  0  0  0  0  0  0
    2.5657  -47.9295  -21.4387 C   0  0  0  0  0  0  0  0  0  0  0  0
    1.9943  -47.1545  -22.4562 O   0  0  0  0  0  0  0  0  0  0  0  0
    4.0345  -47.9253  -21.4287 C   0  0  0  0  0  0  0  0  0  0  0  0
    4.4655  -46.6039  -21.6985 O   0  0  0  0  0  0  0  0  0  0  0  0
    4.7899  -48.8816  -22.2680 C   0  0  0  0  0  0  0  0  0  0  0  0
    6.0151  -48.2793  -22.5638 O   0  0  0  0  0  0  0  0  0  0  0  0
    4.1550  -49.3474  -23.5131 C   0  0  0  0  0  0  0  0  0  0  0  0
    4.9561  -49.1163  -24.6231 O   0  0  0  0  0  0  0  0  0  0  0  0
    3.9235  -50.8677  -23.4954 C   0  0  0  0  0  0  0  0  0  0  0  0
    2.5698  -51.1528  -23.4212 O   0  0  0  0  0  0  0  0  0  0  0  0
    1.1894  -46.6859  -22.1960 H   0  0  0  0  0  0  0  0  0  0  0  0
    3.9808  -46.1924  -22.4409 H   0  0  0  0  0  0  0  0  0  0  0  0
    5.8171  -47.4094  -22.9813 H   0  0  0  0  0  0  0  0  0  0  0  0
    5.8706  -48.8532  -24.4500 H   0  0  0  0  0  0  0  0  0  0  0  0
   -0.4376  -53.7352  -24.4454 C   0  0  0  0  0  0  0  0  0  0  0  0
   -1.2340  -54.6873  -23.7955 C   0  0  0  0  0  0  0  0  0  0  0  0
   -1.1245  -54.7992  -22.4367 C   0  0  0  0  0  0  0  0  0  0  0  0
   -0.2724  -54.0169  -21.7262 C   0  0  0  0  0  0  0  0  0  0  0  0
   -0.2059  -54.1612  -20.4030 N   0  0  0  0  0  0  0  0  0  0  0  0
    0.6133  -53.4120  -19.6565 C   0  0  0  0  0  0  0  0  0  0  0  0
    1.3893  -52.4941  -20.2313 N   0  0  0  0  0  0  0  0  0  0  0  0
    1.3890  -52.2764  -21.5751 C   0  0  0  0  0  0  0  0  0  0  0  0
    0.5462  -53.0473  -22.3372 C   0  0  0  0  0  0  0  0  0  0  0  0
    0.4414  -52.9315  -23.6819 C   0  0  0  0  0  0  0  0  0  0  0  0
   -0.4968  -53.5860  -25.7325 O   0  0  0  0  0  0  0  0  0  0  0  0
    0.4347  -54.3130  -27.7876 C   0  0  0  0  0  0  0  0  0  0  0  0
   -0.5694  -53.4390  -27.0160 C   0  0  0  0  0  0  0  0  0  0  0  0
    1.0082  -49.3240  -20.0608 C   0  0  0  0  0  0  0  0  0  0  0  0
    1.7686  -49.7799  -18.9779 O   0  0  0  0  0  0  0  0  0  0  0  0
    1.2300  -49.9304  -18.1789 H   0  0  0  0  0  0  0  0  0  0  0  0
    4.5364  -51.5207  -24.7260 C   0  0  0  0  0  0  0  0  0  0  0  0
    3.6155  -52.2629  -25.4392 O   0  0  0  0  0  0  0  0  0  0  0  0
    3.0543  -51.4530  -26.7889 P   0  0  0  0  0  0  0  0  0  0  0  0
    1.5903  -51.0846  -26.6040 O   0  0  0  0  0  0  0  0  0  0  0  0
    3.9003  -49.9868  -26.9657 O   0  0  0  0  0  0  0  0  0  0  0  0
    3.2233  -52.3315  -28.2189 O   0  0  0  0  0  0  0  0  0  0  0  0
    4.1657  -49.6808  -26.0535 H   0  0  0  0  0  0  0  0  0  0  0  0
    2.7592  -51.8011  -28.9196 H   0  0  0  0  0  0  0  0  0  0  0  0
 29 30  1  0  0  0
 30 28  1  0  0  0
 28 18  1  0  0  0
 18 19  2  0  0  0
 19 20  1  0  0  0
 20 21  2  0  0  0
 21 22  1  0  0  0
 22 23  2  0  0  0
 23 24  1  0  0  0
 24 25  2  0  0  0
 25  1  1  0  0  0
  1  2  1  0  0  0
  2  3  1  0  0  0
  3 31  1  0  0  0
 31 32  1  0  0  0
  3  4  1  0  0  0
  4  5  1  0  0  0
  4  6  1  0  0  0
  6  7  1  0  0  0
  6  8  1  0  0  0
  8  9  1  0  0  0
  8 10  1  0  0  0
 10 11  1  0  0  0
 10 12  1  0  0  0
 12 34  1  0  0  0
 34 35  1  0  0  0
 35 36  1  0  0  0
 36 37  2  0  0  0
 36 38  1  0  0  0
 36 39  1  0  0  0
 12 13  1  0  0  0
 25 26  1  0  0  0
 26 27  2  0  0  0
 27 18  1  0  0  0
 26 21  1  0  0  0
 13  1  1  0  0  0
 32 33  1  0  0  0
  5 14  1  0  0  0
  7 15  1  0  0  0
  9 16  1  0  0  0
 11 17  1  0  0  0
 38 40  1  0  0  0
 39 41  1  0  0  0
M  END
> <minimizedAffinity>
-7.43242

> <CNNscore>
0.4881212711

> <CNNaffinity>
5.4456229210

> <CNN_VS>
2.6581244469

> <CNNaffinity_variance>
0.2368190736

$$$$
[H]OC([H])([H])[C@]1([H])ON(c2nc([H])nc3c([H])c([H])c(OC([H])([H])C([H])([H])[H])c([H])c23)O[C@@]([H])(C([H])([H])OP(=O)(O[H])O[H])[C@]([H])(O[H])[C@@]([H])(O[H])[C@@]([H])(O[H])[C@@]1([H])O[H]


 41 43  0  0  0  0  0  0  0  0999 V2000
    1.2738  -51.3600  -21.8231 N   0  0  0  0  0  0  0  0  0  0  0  0
    2.5216  -51.4261  -21.2430 O   0  0  0  0  0  0  0  0  0  0  0  0
    2.5512  -50.5637  -20.1894 C   0  0  0  0  0  0  0  0  0  0  0  0
    3.7311  -49.6579  -20.0882 C   0  0  0  0  0  0  0  0  0  0  0  0
    3.3592  -48.3185  -19.9147 O   0  0  0  0  0  0  0  0  0  0  0  0
    4.7985  -49.8653  -21.0757 C   0  0  0  0  0  0  0  0  0  0  0  0
    5.7555  -48.8366  -20.9012 O   0  0  0  0  0  0  0  0  0  0  0  0
    4.4704  -50.0084  -22.5114 C   0  0  0  0  0  0  0  0  0  0  0  0
    5.5819  -49.5566  -23.2268 O   0  0  0  0  0  0  0  0  0  0  0  0
    3.2574  -49.3340  -23.0055 C   0  0  0  0  0  0  0  0  0  0  0  0
    3.5313  -48.4850  -24.0691 O   0  0  0  0  0  0  0  0  0  0  0  0
    2.2323  -50.3423  -23.5512 C   0  0  0  0  0  0  0  0  0  0  0  0
    1.1213  -50.4016  -22.7255 O   0  0  0  0  0  0  0  0  0  0  0  0
    3.1465  -48.0789  -19.0022 H   0  0  0  0  0  0  0  0  0  0  0  0
    5.3476  -47.9539  -20.8008 H   0  0  0  0  0  0  0  0  0  0  0  0
    5.7696  -48.6391  -22.9216 H   0  0  0  0  0  0  0  0  0  0  0  0
    4.4097  -48.5589  -24.4672 H   0  0  0  0  0  0  0  0  0  0  0  0
   -0.3750  -54.2532  -24.4860 C   0  0  0  0  0  0  0  0  0  0  0  0
   -1.3031  -55.1851  -24.0031 C   0  0  0  0  0  0  0  0  0  0  0  0
   -1.6402  -55.1315  -22.6786 C   0  0  0  0  0  0  0  0  0  0  0  0
   -1.0980  -54.2075  -21.8448 C   0  0  0  0  0  0  0  0  0  0  0  0
   -1.4627  -54.1935  -20.5630 N   0  0  0  0  0  0  0  0  0  0  0  0
   -0.9622  -53.3008  -19.7016 C   0  0  0  0  0  0  0  0  0  0  0  0
   -0.0764  -52.3958  -20.1159 N   0  0  0  0  0  0  0  0  0  0  0  0
    0.3547  -52.3342  -21.4057 C   0  0  0  0  0  0  0  0  0  0  0  0
   -0.1622  -53.2521  -22.2864 C   0  0  0  0  0  0  0  0  0  0  0  0
    0.1745  -53.2999  -23.5967 C   0  0  0  0  0  0  0  0  0  0  0  0
   -0.0154  -54.2577  -25.7322 O   0  0  0  0  0  0  0  0  0  0  0  0
   -0.3641  -53.1575  -27.8028 C   0  0  0  0  0  0  0  0  0  0  0  0
    0.3369  -54.2503  -26.9772 C   0  0  0  0  0  0  0  0  0  0  0  0
    2.3543  -51.3826  -18.9055 C   0  0  0  0  0  0  0  0  0  0  0  0
    3.5420  -51.3537  -18.1660 O   0  0  0  0  0  0  0  0  0  0  0  0
    3.5098  -51.9337  -17.3826 H   0  0  0  0  0  0  0  0  0  0  0  0
    1.8199  -49.9774  -24.9700 C   0  0  0  0  0  0  0  0  0  0  0  0
    1.6677  -51.0898  -25.7742 O   0  0  0  0  0  0  0  0  0  0  0  0
    3.1336  -51.7302  -26.2578 P   0  0  0  0  0  0  0  0  0  0  0  0
    3.3071  -53.1272  -25.6819 O   0  0  0  0  0  0  0  0  0  0  0  0
    3.1484  -51.9031  -27.9509 O   0  0  0  0  0  0  0  0  0  0  0  0
    4.4590  -50.7853  -25.8156 O   0  0  0  0  0  0  0  0  0  0  0  0
    2.2085  -52.0644  -28.2451 H   0  0  0  0  0  0  0  0  0  0  0  0
    5.2635  -51.3176  -26.0547 H   0  0  0  0  0  0  0  0  0  0  0  0
 29 30  1  0  0  0
 30 28  1  0  0  0
 28 18  1  0  0  0
 18 19  2  0  0  0
 19 20  1  0  0  0
 20 21  2  0  0  0
 21 22  1  0  0  0
 22 23  2  0  0  0
 23 24  1  0  0  0
 24 25  2  0  0  0
 25  1  1  0  0  0
  1  2  1  0  0  0
  2  3  1  0  0  0
  3 31  1  0  0  0
 31 32  1  0  0  0
  3  4  1  0  0  0
  4  5  1  0  0  0
  4  6  1  0  0  0
  6  7  1  0  0  0
  6  8  1  0  0  0
  8  9  1  0  0  0
  8 10  1  0  0  0
 10 11  1  0  0  0
 10 12  1  0  0  0
 12 34  1  0  0  0
 34 35  1  0  0  0
 35 36  1  0  0  0
 36 37  2  0  0  0
 36 38  1  0  0  0
 36 39  1  0  0  0
 12 13  1  0  0  0
 25 26  1  0  0  0
 26 27  2  0  0  0
 27 18  1  0  0  0
 26 21  1  0  0  0
 13  1  1  0  0  0
 32 33  1  0  0  0
  5 14  1  0  0  0
  7 15  1  0  0  0
  9 16  1  0  0  0
 11 17  1  0  0  0
 38 40  1  0  0  0
 39 41  1  0  0  0
M  END
> <minimizedAffinity>
-7.79849

> <CNNscore>
0.4745234549

> <CNNaffinity>
5.3456573486

> <CNN_VS>
2.5366396904

> <CNNaffinity_variance>
0.2377121001

$$$$
[H]OC([H])([H])[C@]1([H])ON(c2nc([H])nc3c([H])c([H])c(OC([H])([H])C([H])([H])[H])c([H])c23)O[C@@]([H])(C([H])([H])OP(=O)(O[H])O[H])[C@]([H])(O[H])[C@@]([H])(O[H])[C@@]([H])(O[H])[C@@]1([H])O[H]


 41 43  0  0  0  0  0  0  0  0999 V2000
    2.2942  -51.9172  -23.5831 N   0  0  0  0  0  0  0  0  0  0  0  0
    2.1348  -50.6319  -24.0528 O   0  0  0  0  0  0  0  0  0  0  0  0
    2.7943  -50.5238  -25.2394 C   0  0  0  0  0  0  0  0  0  0  0  0
    3.6765  -49.3353  -25.4183 C   0  0  0  0  0  0  0  0  0  0  0  0
    4.9601  -49.6874  -25.8551 O   0  0  0  0  0  0  0  0  0  0  0  0
    3.6580  -48.3412  -24.3371 C   0  0  0  0  0  0  0  0  0  0  0  0
    4.6461  -47.3692  -24.6257 O   0  0  0  0  0  0  0  0  0  0  0  0
    3.7722  -48.7705  -22.9257 C   0  0  0  0  0  0  0  0  0  0  0  0
    4.3538  -47.7100  -22.2267 O   0  0  0  0  0  0  0  0  0  0  0  0
    4.5149  -50.0120  -22.6472 C   0  0  0  0  0  0  0  0  0  0  0  0
    5.5430  -49.8097  -21.7368 O   0  0  0  0  0  0  0  0  0  0  0  0
    3.6129  -51.0781  -22.0028 C   0  0  0  0  0  0  0  0  0  0  0  0
    3.3977  -52.1283  -22.8804 O   0  0  0  0  0  0  0  0  0  0  0  0
    5.0304  -49.8340  -26.8085 H   0  0  0  0  0  0  0  0  0  0  0  0
    5.4932  -47.7647  -24.9114 H   0  0  0  0  0  0  0  0  0  0  0  0
    5.2031  -47.4968  -22.6777 H   0  0  0  0  0  0  0  0  0  0  0  0
    5.5486  -48.9619  -21.2711 H   0  0  0  0  0  0  0  0  0  0  0  0
   -0.5441  -53.1965  -20.6698 C   0  0  0  0  0  0  0  0  0  0  0  0
   -1.5461  -54.1050  -21.0355 C   0  0  0  0  0  0  0  0  0  0  0  0
   -1.5765  -54.5434  -22.3307 C   0  0  0  0  0  0  0  0  0  0  0  0
   -0.6684  -54.1181  -23.2458 C   0  0  0  0  0  0  0  0  0  0  0  0
   -0.7376  -54.5786  -24.4945 N   0  0  0  0  0  0  0  0  0  0  0  0
    0.1358  -54.1950  -25.4324 C   0  0  0  0  0  0  0  0  0  0  0  0
    1.1052  -53.3324  -25.1304 N   0  0  0  0  0  0  0  0  0  0  0  0
    1.2537  -52.8094  -23.8824 C   0  0  0  0  0  0  0  0  0  0  0  0
    0.3553  -53.2064  -22.9228 C   0  0  0  0  0  0  0  0  0  0  0  0
    0.3909  -52.7697  -21.6420 C   0  0  0  0  0  0  0  0  0  0  0  0
   -0.4675  -52.7443  -19.4565 O   0  0  0  0  0  0  0  0  0  0  0  0
   -1.5281  -52.7747  -17.3366 C   0  0  0  0  0  0  0  0  0  0  0  0
   -0.3797  -52.3005  -18.2442 C   0  0  0  0  0  0  0  0  0  0  0  0
    1.7568  -50.6338  -26.3660 C   0  0  0  0  0  0  0  0  0  0  0  0
    2.2162  -51.5560  -27.3130 O   0  0  0  0  0  0  0  0  0  0  0  0
    1.6432  -51.6008  -28.1010 H   0  0  0  0  0  0  0  0  0  0  0  0
    4.2232  -51.5877  -20.7051 C   0  0  0  0  0  0  0  0  0  0  0  0
    3.2765  -51.7682  -19.7159 O   0  0  0  0  0  0  0  0  0  0  0  0
    3.3666  -50.5964  -18.5279 P   0  0  0  0  0  0  0  0  0  0  0  0
    3.7124  -51.2349  -17.1916 O   0  0  0  0  0  0  0  0  0  0  0  0
    4.6331  -49.5178  -18.8872 O   0  0  0  0  0  0  0  0  0  0  0  0
    1.9475  -49.7006  -18.3578 O   0  0  0  0  0  0  0  0  0  0  0  0
    5.3283  -50.0271  -19.3906 H   0  0  0  0  0  0  0  0  0  0  0  0
    2.0846  -49.1241  -17.5600 H   0  0  0  0  0  0  0  0  0  0  0  0
 29 30  1  0  0  0
 30 28  1  0  0  0
 28 18  1  0  0  0
 18 19  2  0  0  0
 19 20  1  0  0  0
 20 21  2  0  0  0
 21 22  1  0  0  0
 22 23  2  0  0  0
 23 24  1  0  0  0
 24 25  2  0  0  0
 25  1  1  0  0  0
  1  2  1  0  0  0
  2  3  1  0  0  0
  3 31  1  0  0  0
 31 32  1  0  0  0
  3  4  1  0  0  0
  4  5  1  0  0  0
  4  6  1  0  0  0
  6  7  1  0  0  0
  6  8  1  0  0  0
  8  9  1  0  0  0
  8 10  1  0  0  0
 10 11  1  0  0  0
 10 12  1  0  0  0
 12 34  1  0  0  0
 34 35  1  0  0  0
 35 36  1  0  0  0
 36 37  2  0  0  0
 36 38  1  0  0  0
 36 39  1  0  0  0
 12 13  1  0  0  0
 25 26  1  0  0  0
 26 27  2  0  0  0
 27 18  1  0  0  0
 26 21  1  0  0  0
 13  1  1  0  0  0
 32 33  1  0  0  0
  5 14  1  0  0  0
  7 15  1  0  0  0
  9 16  1  0  0  0
 11 17  1  0  0  0
 38 40  1  0  0  0
 39 41  1  0  0  0
M  END
> <minimizedAffinity>
-7.84765

> <CNNscore>
0.3355633020

> <CNNaffinity>
5.2268905640

> <CNN_VS>
1.7539526224

> <CNNaffinity_variance>
0.2943866253

$$$$
[H]OC([H])([H])[C@]1([H])ON(c2nc([H])nc3c([H])c([H])c(OC([H])([H])C([H])([H])[H])c([H])c23)O[C@@]([H])(C([H])([H])OP(=O)(O[H])O[H])[C@]([H])(O[H])[C@@]([H])(O[H])[C@@]([H])(O[H])[C@@]1([H])O[H]


 41 43  0  0  0  0  0  0  0  0999 V2000
    2.1549  -51.0949  -23.1013 N   0  0  0  0  0  0  0  0  0  0  0  0
    1.9361  -51.8728  -21.9855 O   0  0  0  0  0  0  0  0  0  0  0  0
    0.6624  -52.3518  -22.0394 C   0  0  0  0  0  0  0  0  0  0  0  0
   -0.1584  -52.2347  -20.8003 C   0  0  0  0  0  0  0  0  0  0  0  0
   -1.4088  -51.6522  -21.0444 O   0  0  0  0  0  0  0  0  0  0  0  0
    0.5282  -51.7147  -19.6105 C   0  0  0  0  0  0  0  0  0  0  0  0
   -0.4383  -51.5546  -18.5883 O   0  0  0  0  0  0  0  0  0  0  0  0
    1.3674  -50.4996  -19.7037 C   0  0  0  0  0  0  0  0  0  0  0  0
    1.3477  -49.8974  -18.4433 O   0  0  0  0  0  0  0  0  0  0  0  0
    1.0170  -49.5046  -20.7321 C   0  0  0  0  0  0  0  0  0  0  0  0
    0.8183  -48.2429  -20.1883 O   0  0  0  0  0  0  0  0  0  0  0  0
    2.1510  -49.3259  -21.7555 C   0  0  0  0  0  0  0  0  0  0  0  0
    1.7758  -49.8299  -22.9903 O   0  0  0  0  0  0  0  0  0  0  0  0
   -2.0757  -52.2663  -21.3811 H   0  0  0  0  0  0  0  0  0  0  0  0
   -1.2572  -51.1258  -18.9063 H   0  0  0  0  0  0  0  0  0  0  0  0
    0.4029  -49.7463  -18.2091 H   0  0  0  0  0  0  0  0  0  0  0  0
    1.0919  -48.1195  -19.2689 H   0  0  0  0  0  0  0  0  0  0  0  0
    0.0269  -52.3105  -26.5904 C   0  0  0  0  0  0  0  0  0  0  0  0
    0.7114  -52.9661  -27.6223 C   0  0  0  0  0  0  0  0  0  0  0  0
    2.0527  -53.1847  -27.4682 C   0  0  0  0  0  0  0  0  0  0  0  0
    2.7141  -52.7829  -26.3528 C   0  0  0  0  0  0  0  0  0  0  0  0
    4.0207  -53.0237  -26.2484 N   0  0  0  0  0  0  0  0  0  0  0  0
    4.7176  -52.6529  -25.1683 C   0  0  0  0  0  0  0  0  0  0  0  0
    4.1086  -52.0266  -24.1624 N   0  0  0  0  0  0  0  0  0  0  0  0
    2.7782  -51.7384  -24.1809 C   0  0  0  0  0  0  0  0  0  0  0  0
    2.0670  -52.1213  -25.2912 C   0  0  0  0  0  0  0  0  0  0  0  0
    0.7390  -51.9029  -25.4379 C   0  0  0  0  0  0  0  0  0  0  0  0
   -1.2450  -52.0735  -26.6821 O   0  0  0  0  0  0  0  0  0  0  0  0
   -3.1603  -52.4528  -28.0266 C   0  0  0  0  0  0  0  0  0  0  0  0
   -2.5165  -51.8484  -26.7666 C   0  0  0  0  0  0  0  0  0  0  0  0
    0.7257  -53.8013  -22.5419 C   0  0  0  0  0  0  0  0  0  0  0  0
   -0.4741  -54.4438  -22.2162 O   0  0  0  0  0  0  0  0  0  0  0  0
   -0.4586  -55.3959  -22.4274 H   0  0  0  0  0  0  0  0  0  0  0  0
    2.5412  -47.8598  -21.8774 C   0  0  0  0  0  0  0  0  0  0  0  0
    3.8051  -47.6961  -22.4093 O   0  0  0  0  0  0  0  0  0  0  0  0
    3.7649  -47.1505  -23.9883 P   0  0  0  0  0  0  0  0  0  0  0  0
    2.8047  -45.9772  -24.1096 O   0  0  0  0  0  0  0  0  0  0  0  0
    5.3005  -46.5621  -24.4265 O   0  0  0  0  0  0  0  0  0  0  0  0
    3.3223  -48.3397  -25.0997 O   0  0  0  0  0  0  0  0  0  0  0  0
    5.7357  -46.2117  -23.5995 H   0  0  0  0  0  0  0  0  0  0  0  0
    3.2260  -47.8733  -25.9720 H   0  0  0  0  0  0  0  0  0  0  0  0
 29 30  1  0  0  0
 30 28  1  0  0  0
 28 18  1  0  0  0
 18 19  2  0  0  0
 19 20  1  0  0  0
 20 21  2  0  0  0
 21 22  1  0  0  0
 22 23  2  0  0  0
 23 24  1  0  0  0
 24 25  2  0  0  0
 25  1  1  0  0  0
  1  2  1  0  0  0
  2  3  1  0  0  0
  3 31  1  0  0  0
 31 32  1  0  0  0
  3  4  1  0  0  0
  4  5  1  0  0  0
  4  6  1  0  0  0
  6  7  1  0  0  0
  6  8  1  0  0  0
  8  9  1  0  0  0
  8 10  1  0  0  0
 10 11  1  0  0  0
 10 12  1  0  0  0
 12 34  1  0  0  0
 34 35  1  0  0  0
 35 36  1  0  0  0
 36 37  2  0  0  0
 36 38  1  0  0  0
 36 39  1  0  0  0
 12 13  1  0  0  0
 25 26  1  0  0  0
 26 27  2  0  0  0
 27 18  1  0  0  0
 26 21  1  0  0  0
 13  1  1  0  0  0
 32 33  1  0  0  0
  5 14  1  0  0  0
  7 15  1  0  0  0
  9 16  1  0  0  0
 11 17  1  0  0  0
 38 40  1  0  0  0
 39 41  1  0  0  0
M  END
> <minimizedAffinity>
-5.55011

> <CNNscore>
0.3156542182

> <CNNaffinity>
4.6323561668

> <CNN_VS>
1.4622228146

> <CNNaffinity_variance>
0.2446301281

$$$$
[H]OC([H])([H])[C@]1([H])ON(c2nc([H])nc3c([H])c([H])c(OC([H])([H])C([H])([H])[H])c([H])c23)O[C@@]([H])(C([H])([H])OP(=O)(O[H])O[H])[C@]([H])(O[H])[C@@]([H])(O[H])[C@@]([H])(O[H])[C@@]1([H])O[H]


 41 43  0  0  0  0  0  0  0  0999 V2000
    0.5363  -51.3146  -18.5058 N   0  0  0  0  0  0  0  0  0  0  0  0
    1.6052  -50.4884  -18.7756 O   0  0  0  0  0  0  0  0  0  0  0  0
    2.7508  -51.1484  -18.4491 C   0  0  0  0  0  0  0  0  0  0  0  0
    3.7549  -50.4022  -17.6381 C   0  0  0  0  0  0  0  0  0  0  0  0
    4.1756  -51.1269  -16.5156 O   0  0  0  0  0  0  0  0  0  0  0  0
    3.4547  -48.9900  -17.3676 C   0  0  0  0  0  0  0  0  0  0  0  0
    4.4458  -48.4983  -16.4841 O   0  0  0  0  0  0  0  0  0  0  0  0
    2.1125  -48.5900  -16.8902 C   0  0  0  0  0  0  0  0  0  0  0  0
    2.2816  -47.4236  -16.1402 O   0  0  0  0  0  0  0  0  0  0  0  0
    1.3446  -49.5737  -16.1073 C   0  0  0  0  0  0  0  0  0  0  0  0
    0.9536  -49.0667  -14.8756 O   0  0  0  0  0  0  0  0  0  0  0  0
    0.0354  -49.9617  -16.8149 C   0  0  0  0  0  0  0  0  0  0  0  0
    0.0921  -51.2732  -17.2580 O   0  0  0  0  0  0  0  0  0  0  0  0
    4.8659  -51.7793  -16.6980 H   0  0  0  0  0  0  0  0  0  0  0  0
    4.6288  -49.1094  -15.7435 H   0  0  0  0  0  0  0  0  0  0  0  0
    2.9420  -47.6242  -15.4374 H   0  0  0  0  0  0  0  0  0  0  0  0
    1.0652  -48.1151  -14.7437 H   0  0  0  0  0  0  0  0  0  0  0  0
    1.4491  -50.3267  -22.5520 C   0  0  0  0  0  0  0  0  0  0  0  0
    0.9093  -51.0988  -23.5890 C   0  0  0  0  0  0  0  0  0  0  0  0
    0.1076  -52.1555  -23.2552 C   0  0  0  0  0  0  0  0  0  0  0  0
   -0.1649  -52.4588  -21.9603 C   0  0  0  0  0  0  0  0  0  0  0  0
   -0.9558  -53.4960  -21.6871 N   0  0  0  0  0  0  0  0  0  0  0  0
   -1.2593  -53.8336  -20.4287 C   0  0  0  0  0  0  0  0  0  0  0  0
   -0.7686  -53.1283  -19.4104 N   0  0  0  0  0  0  0  0  0  0  0  0
    0.0471  -52.0538  -19.5932 C   0  0  0  0  0  0  0  0  0  0  0  0
    0.3554  -51.7107  -20.8865 C   0  0  0  0  0  0  0  0  0  0  0  0
    1.1489  -50.6630  -21.2110 C   0  0  0  0  0  0  0  0  0  0  0  0
    2.2184  -49.3143  -22.8081 O   0  0  0  0  0  0  0  0  0  0  0  0
    2.4781  -46.9906  -22.4169 C   0  0  0  0  0  0  0  0  0  0  0  0
    2.9750  -48.2959  -23.0625 C   0  0  0  0  0  0  0  0  0  0  0  0
    3.3642  -51.6959  -19.7459 C   0  0  0  0  0  0  0  0  0  0  0  0
    4.4050  -50.8494  -20.1444 O   0  0  0  0  0  0  0  0  0  0  0  0
    4.7743  -51.0933  -21.0135 H   0  0  0  0  0  0  0  0  0  0  0  0
   -1.1565  -49.7657  -15.8890 C   0  0  0  0  0  0  0  0  0  0  0  0
   -1.5089  -48.4364  -15.7623 O   0  0  0  0  0  0  0  0  0  0  0  0
   -2.3531  -48.1339  -14.3520 P   0  0  0  0  0  0  0  0  0  0  0  0
   -3.7728  -48.6663  -14.4704 O   0  0  0  0  0  0  0  0  0  0  0  0
   -1.6292  -48.9775  -13.0633 O   0  0  0  0  0  0  0  0  0  0  0  0
   -2.4120  -46.4990  -13.9411 O   0  0  0  0  0  0  0  0  0  0  0  0
   -1.2129  -49.8027  -13.4400 H   0  0  0  0  0  0  0  0  0  0  0  0
   -3.0252  -46.4372  -13.1614 H   0  0  0  0  0  0  0  0  0  0  0  0
 29 30  1  0  0  0
 30 28  1  0  0  0
 28 18  1  0  0  0
 18 19  2  0  0  0
 19 20  1  0  0  0
 20 21  2  0  0  0
 21 22  1  0  0  0
 22 23  2  0  0  0
 23 24  1  0  0  0
 24 25  2  0  0  0
 25  1  1  0  0  0
  1  2  1  0  0  0
  2  3  1  0  0  0
  3 31  1  0  0  0
 31 32  1  0  0  0
  3  4  1  0  0  0
  4  5  1  0  0  0
  4  6  1  0  0  0
  6  7  1  0  0  0
  6  8  1  0  0  0
  8  9  1  0  0  0
  8 10  1  0  0  0
 10 11  1  0  0  0
 10 12  1  0  0  0
 12 34  1  0  0  0
 34 35  1  0  0  0
 35 36  1  0  0  0
 36 37  2  0  0  0
 36 38  1  0  0  0
 36 39  1  0  0  0
 12 13  1  0  0  0
 25 26  1  0  0  0
 26 27  2  0  0  0
 27 18  1  0  0  0
 26 21  1  0  0  0
 13  1  1  0  0  0
 32 33  1  0  0  0
  5 14  1  0  0  0
  7 15  1  0  0  0
  9 16  1  0  0  0
 11 17  1  0  0  0
 38 40  1  0  0  0
 39 41  1  0  0  0
M  END
> <minimizedAffinity>
-6.92004

> <CNNscore>
0.3136576712

> <CNNaffinity>
5.0290975571

> <CNN_VS>
1.5774149895

> <CNNaffinity_variance>
0.1547986567

$$$$
[H]OC(=O)[C@@]([H])(N([H])C(=O)[C@@]([H])(N([H])C(=O)[C@]([H])(N([H])C(=O)[C@@]([H])(C([H])([H])c1c([H])c([H])c([H])c([H])c1[H])C([H])([H])C([H])([H])[H])C([H])([H])c1c([H])n([H])c2c([H])c([H])c([H])c([H])c12)C([H])([H])C([H])([H])C([H])([H])N=C(N([H])[H])N([H])[H])C([H])([H])c1c([H])c([H])c([H])c([H])c1[H]


 58 61  0  0  0  0  0  0  0  0999 V2000
    1.5040  -50.8096  -22.3411 C   0  0  0  0  0  0  0  0  0  0  0  0
    1.1596  -49.6446  -21.9679 O   0  0  0  0  0  0  0  0  0  0  0  0
    1.4319  -51.9044  -21.4928 N   0  0  0  0  0  0  0  0  0  0  0  0
    1.7167  -52.8506  -21.7929 H   0  0  0  0  0  0  0  0  0  0  0  0
    0.9435  -51.7184  -20.1439 C   0  0  0  0  0  0  0  0  0  0  0  0
    2.1657  -51.3926  -19.3235 C   0  0  0  0  0  0  0  0  0  0  0  0
    3.2209  -52.0065  -19.5092 O   0  0  0  0  0  0  0  0  0  0  0  0
    2.0502  -50.3667  -18.3514 N   0  0  0  0  0  0  0  0  0  0  0  0
    1.1974  -49.8191  -18.1399 H   0  0  0  0  0  0  0  0  0  0  0  0
    3.2464  -50.0215  -17.5450 C   0  0  0  0  0  0  0  0  0  0  0  0
    3.1775  -50.8455  -16.3270 C   0  0  0  0  0  0  0  0  0  0  0  0
    2.1186  -50.6972  -15.4595 O   0  0  0  0  0  0  0  0  0  0  0  0
    4.0619  -51.6768  -16.0598 O   0  0  0  0  0  0  0  0  0  0  0  0
    1.7875  -51.5207  -14.9571 H   0  0  0  0  0  0  0  0  0  0  0  0
    3.0787  -48.5766  -17.2174 C   0  0  0  0  0  0  0  0  0  0  0  0
    3.9898  -47.6360  -17.8635 C   0  0  0  0  0  0  0  0  0  0  0  0
    3.6001  -46.3168  -18.1243 C   0  0  0  0  0  0  0  0  0  0  0  0
    4.4654  -45.4259  -18.7054 C   0  0  0  0  0  0  0  0  0  0  0  0
    5.7451  -45.7856  -19.0556 C   0  0  0  0  0  0  0  0  0  0  0  0
    6.1277  -47.0731  -18.8017 C   0  0  0  0  0  0  0  0  0  0  0  0
    5.2694  -47.9789  -18.2184 C   0  0  0  0  0  0  0  0  0  0  0  0
    0.2167  -52.8844  -19.5805 C   0  0  0  0  0  0  0  0  0  0  0  0
    0.0724  -53.9619  -20.6101 C   0  0  0  0  0  0  0  0  0  0  0  0
   -1.3231  -53.9970  -21.2071 C   0  0  0  0  0  0  0  0  0  0  0  0
   -1.5098  -55.1414  -22.0710 N   0  0  0  0  0  0  0  0  0  0  0  0
   -1.1978  -55.0346  -23.3274 C   0  0  0  0  0  0  0  0  0  0  0  0
   -1.3598  -56.1261  -24.2249 N   0  0  0  0  0  0  0  0  0  0  0  0
   -0.6853  -53.8243  -23.8384 N   0  0  0  0  0  0  0  0  0  0  0  0
   -0.6162  -56.8194  -24.3978 H   0  0  0  0  0  0  0  0  0  0  0  0
   -2.2801  -56.1990  -24.7112 H   0  0  0  0  0  0  0  0  0  0  0  0
   -1.2884  -53.2627  -24.4874 H   0  0  0  0  0  0  0  0  0  0  0  0
    0.2675  -53.4822  -23.5863 H   0  0  0  0  0  0  0  0  0  0  0  0
    2.0075  -50.9771  -23.7559 C   0  0  0  0  0  0  0  0  0  0  0  0
    4.2046  -49.8386  -24.0688 C   0  0  0  0  0  0  0  0  0  0  0  0
    4.7811  -50.9308  -23.9296 O   0  0  0  0  0  0  0  0  0  0  0  0
    2.7909  -49.8009  -24.0015 N   0  0  0  0  0  0  0  0  0  0  0  0
    2.3322  -48.8736  -24.1308 H   0  0  0  0  0  0  0  0  0  0  0  0
    5.0463  -48.6296  -24.2936 C   0  0  0  0  0  0  0  0  0  0  0  0
    4.6537  -47.6847  -22.0543 C   0  0  0  0  0  0  0  0  0  0  0  0
    4.5033  -47.4467  -23.5346 C   0  0  0  0  0  0  0  0  0  0  0  0
    5.0802  -48.4543  -25.7863 C   0  0  0  0  0  0  0  0  0  0  0  0
    4.4352  -47.2791  -26.3350 C   0  0  0  0  0  0  0  0  0  0  0  0
    3.0843  -47.3828  -26.6913 C   0  0  0  0  0  0  0  0  0  0  0  0
    2.3923  -46.3031  -27.1932 C   0  0  0  0  0  0  0  0  0  0  0  0
    3.0431  -45.1027  -27.3463 C   0  0  0  0  0  0  0  0  0  0  0  0
    4.3636  -44.9817  -27.0038 C   0  0  0  0  0  0  0  0  0  0  0  0
    5.0333  -46.0718  -26.5052 C   0  0  0  0  0  0  0  0  0  0  0  0
    0.8646  -51.1064  -24.7028 C   0  0  0  0  0  0  0  0  0  0  0  0
    1.1482  -51.7494  -25.9880 C   0  0  0  0  0  0  0  0  0  0  0  0
    2.4294  -52.0434  -26.4692 C   0  0  0  0  0  0  0  0  0  0  0  0
    2.2893  -52.5816  -27.6876 N   0  0  0  0  0  0  0  0  0  0  0  0
    1.0103  -52.6583  -28.0292 C   0  0  0  0  0  0  0  0  0  0  0  0
    0.3439  -53.1359  -29.1546 C   0  0  0  0  0  0  0  0  0  0  0  0
   -1.0297  -53.0933  -29.2111 C   0  0  0  0  0  0  0  0  0  0  0  0
   -1.7575  -52.5864  -28.1748 C   0  0  0  0  0  0  0  0  0  0  0  0
   -1.1090  -52.1059  -27.0456 C   0  0  0  0  0  0  0  0  0  0  0  0
    0.2598  -52.1395  -26.9732 C   0  0  0  0  0  0  0  0  0  0  0  0
    3.1076  -52.8930  -28.2712 H   0  0  0  0  0  0  0  0  0  0  0  0
 39 40  1  0  0  0
 40 38  1  0  0  0
 38 41  1  0  0  0
 41 42  1  0  0  0
 42 43  2  0  0  0
 43 44  1  0  0  0
 44 45  2  0  0  0
 45 46  1  0  0  0
 46 47  2  0  0  0
 38 34  1  0  0  0
 34 35  2  0  0  0
 34 36  1  0  0  0
 36 33  1  0  0  0
 33 48  1  0  0  0
 48 49  1  0  0  0
 49 50  2  0  0  0
 50 51  1  0  0  0
 51 52  1  0  0  0
 52 53  2  0  0  0
 53 54  1  0  0  0
 54 55  2  0  0  0
 55 56  1  0  0  0
 56 57  2  0  0  0
 33  1  1  0  0  0
  1  2  2  0  0  0
  1  3  1  0  0  0
  3  5  1  0  0  0
  5 22  1  0  0  0
 22 23  1  0  0  0
 23 24  1  0  0  0
 24 25  1  0  0  0
 25 26  2  0  0  0
 26 27  1  0  0  0
 26 28  1  0  0  0
  5  6  1  0  0  0
  6  7  2  0  0  0
  6  8  1  0  0  0
  8 10  1  0  0  0
 10 15  1  0  0  0
 15 16  1  0  0  0
 16 17  2  0  0  0
 17 18  1  0  0  0
 18 19  2  0  0  0
 19 20  1  0  0  0
 20 21  2  0  0  0
 10 11  1  0  0  0
 11 12  1  0  0  0
 11 13  2  0  0  0
 47 42  1  0  0  0
 57 49  1  0  0  0
 21 16  1  0  0  0
 57 52  1  0  0  0
 36 37  1  0  0  0
 51 58  1  0  0  0
  3  4  1  0  0  0
 27 29  1  0  0  0
 27 30  1  0  0  0
 28 31  1  0  0  0
 28 32  1  0  0  0
  8  9  1  0  0  0
 12 14  1  0  0  0
M  END
> <minimizedAffinity>
-7.82260

> <CNNscore>
0.6306162477

> <CNNaffinity>
7.8044471741

> <CNN_VS>
4.9216113091

> <CNNaffinity_variance>
0.6356126070

$$$$
[H]OC(=O)[C@@]([H])(N([H])C(=O)[C@@]([H])(N([H])C(=O)[C@]([H])(N([H])C(=O)[C@@]([H])(C([H])([H])c1c([H])c([H])c([H])c([H])c1[H])C([H])([H])C([H])([H])[H])C([H])([H])c1c([H])n([H])c2c([H])c([H])c([H])c([H])c12)C([H])([H])C([H])([H])C([H])([H])N=C(N([H])[H])N([H])[H])C([H])([H])c1c([H])c([H])c([H])c([H])c1[H]


 58 61  0  0  0  0  0  0  0  0999 V2000
    1.6633  -51.9209  -22.9613 C   0  0  0  0  0  0  0  0  0  0  0  0
    0.4843  -51.5146  -23.2067 O   0  0  0  0  0  0  0  0  0  0  0  0
    2.0283  -52.4080  -21.7152 N   0  0  0  0  0  0  0  0  0  0  0  0
    2.9873  -52.7332  -21.5127 H   0  0  0  0  0  0  0  0  0  0  0  0
    1.0369  -52.4628  -20.6632 C   0  0  0  0  0  0  0  0  0  0  0  0
    1.7043  -51.8464  -19.4600 C   0  0  0  0  0  0  0  0  0  0  0  0
    2.9212  -51.9713  -19.2920 O   0  0  0  0  0  0  0  0  0  0  0  0
    0.8865  -51.1280  -18.5511 N   0  0  0  0  0  0  0  0  0  0  0  0
   -0.1369  -50.9912  -18.6275 H   0  0  0  0  0  0  0  0  0  0  0  0
    1.5276  -50.5014  -17.3694 C   0  0  0  0  0  0  0  0  0  0  0  0
    0.6402  -50.7686  -16.2256 C   0  0  0  0  0  0  0  0  0  0  0  0
   -0.3452  -51.7243  -16.3326 O   0  0  0  0  0  0  0  0  0  0  0  0
    0.7587  -50.1442  -15.1576 O   0  0  0  0  0  0  0  0  0  0  0  0
   -0.5906  -52.2596  -15.4999 H   0  0  0  0  0  0  0  0  0  0  0  0
    1.5617  -49.0445  -17.6846 C   0  0  0  0  0  0  0  0  0  0  0  0
    2.6662  -48.5666  -18.5116 C   0  0  0  0  0  0  0  0  0  0  0  0
    2.4352  -48.0240  -19.7815 C   0  0  0  0  0  0  0  0  0  0  0  0
    3.4696  -47.5496  -20.5464 C   0  0  0  0  0  0  0  0  0  0  0  0
    4.7706  -47.5852  -20.1038 C   0  0  0  0  0  0  0  0  0  0  0  0
    4.9983  -48.1145  -18.8642 C   0  0  0  0  0  0  0  0  0  0  0  0
    3.9692  -48.5947  -18.0847 C   0  0  0  0  0  0  0  0  0  0  0  0
    0.5331  -53.8255  -20.3554 C   0  0  0  0  0  0  0  0  0  0  0  0
   -0.9634  -53.8341  -20.3054 C   0  0  0  0  0  0  0  0  0  0  0  0
   -1.5806  -53.7848  -21.6916 C   0  0  0  0  0  0  0  0  0  0  0  0
   -1.5733  -55.0823  -22.3300 N   0  0  0  0  0  0  0  0  0  0  0  0
   -1.2394  -55.1616  -23.5827 C   0  0  0  0  0  0  0  0  0  0  0  0
   -1.2142  -56.4101  -24.2637 N   0  0  0  0  0  0  0  0  0  0  0  0
   -0.8895  -54.0028  -24.3061 N   0  0  0  0  0  0  0  0  0  0  0  0
   -0.3738  -57.0065  -24.3015 H   0  0  0  0  0  0  0  0  0  0  0  0
   -2.0984  -56.7048  -24.7330 H   0  0  0  0  0  0  0  0  0  0  0  0
   -1.5456  -53.6636  -25.0509 H   0  0  0  0  0  0  0  0  0  0  0  0
   -0.0042  -53.4843  -24.1166 H   0  0  0  0  0  0  0  0  0  0  0  0
    2.6787  -51.8559  -24.0785 C   0  0  0  0  0  0  0  0  0  0  0  0
    5.1429  -51.5199  -23.8880 C   0  0  0  0  0  0  0  0  0  0  0  0
    5.3187  -52.3613  -24.7856 O   0  0  0  0  0  0  0  0  0  0  0  0
    3.8187  -51.2121  -23.4926 N   0  0  0  0  0  0  0  0  0  0  0  0
    3.6991  -50.4962  -22.7441 H   0  0  0  0  0  0  0  0  0  0  0  0
    6.3474  -50.8893  -23.2779 C   0  0  0  0  0  0  0  0  0  0  0  0
    7.3674  -50.2437  -21.1321 C   0  0  0  0  0  0  0  0  0  0  0  0
    6.0667  -50.4479  -21.8649 C   0  0  0  0  0  0  0  0  0  0  0  0
    6.7204  -49.7780  -24.2190 C   0  0  0  0  0  0  0  0  0  0  0  0
    6.1015  -48.4860  -24.0049 C   0  0  0  0  0  0  0  0  0  0  0  0
    6.8773  -47.4809  -23.4129 C   0  0  0  0  0  0  0  0  0  0  0  0
    6.3709  -46.2179  -23.2016 C   0  0  0  0  0  0  0  0  0  0  0  0
    5.0791  -45.9421  -23.5798 C   0  0  0  0  0  0  0  0  0  0  0  0
    4.3049  -46.9116  -24.1598 C   0  0  0  0  0  0  0  0  0  0  0  0
    4.8311  -48.1639  -24.3608 C   0  0  0  0  0  0  0  0  0  0  0  0
    2.1299  -51.0960  -25.2365 C   0  0  0  0  0  0  0  0  0  0  0  0
    1.8743  -51.8604  -26.4596 C   0  0  0  0  0  0  0  0  0  0  0  0
    2.8653  -52.4250  -27.2711 C   0  0  0  0  0  0  0  0  0  0  0  0
    2.2533  -53.0010  -28.3139 N   0  0  0  0  0  0  0  0  0  0  0  0
    0.9381  -52.8510  -28.2355 C   0  0  0  0  0  0  0  0  0  0  0  0
   -0.1247  -53.2605  -29.0365 C   0  0  0  0  0  0  0  0  0  0  0  0
   -1.4165  -52.9576  -28.6742 C   0  0  0  0  0  0  0  0  0  0  0  0
   -1.6775  -52.2565  -27.5337 C   0  0  0  0  0  0  0  0  0  0  0  0
   -0.6298  -51.8406  -26.7239 C   0  0  0  0  0  0  0  0  0  0  0  0
    0.6642  -52.1326  -27.0708 C   0  0  0  0  0  0  0  0  0  0  0  0
    2.7768  -53.5001  -29.0783 H   0  0  0  0  0  0  0  0  0  0  0  0
 39 40  1  0  0  0
 40 38  1  0  0  0
 38 41  1  0  0  0
 41 42  1  0  0  0
 42 43  2  0  0  0
 43 44  1  0  0  0
 44 45  2  0  0  0
 45 46  1  0  0  0
 46 47  2  0  0  0
 38 34  1  0  0  0
 34 35  2  0  0  0
 34 36  1  0  0  0
 36 33  1  0  0  0
 33 48  1  0  0  0
 48 49  1  0  0  0
 49 50  2  0  0  0
 50 51  1  0  0  0
 51 52  1  0  0  0
 52 53  2  0  0  0
 53 54  1  0  0  0
 54 55  2  0  0  0
 55 56  1  0  0  0
 56 57  2  0  0  0
 33  1  1  0  0  0
  1  2  2  0  0  0
  1  3  1  0  0  0
  3  5  1  0  0  0
  5 22  1  0  0  0
 22 23  1  0  0  0
 23 24  1  0  0  0
 24 25  1  0  0  0
 25 26  2  0  0  0
 26 27  1  0  0  0
 26 28  1  0  0  0
  5  6  1  0  0  0
  6  7  2  0  0  0
  6  8  1  0  0  0
  8 10  1  0  0  0
 10 15  1  0  0  0
 15 16  1  0  0  0
 16 17  2  0  0  0
 17 18  1  0  0  0
 18 19  2  0  0  0
 19 20  1  0  0  0
 20 21  2  0  0  0
 10 11  1  0  0  0
 11 12  1  0  0  0
 11 13  2  0  0  0
 47 42  1  0  0  0
 57 49  1  0  0  0
 21 16  1  0  0  0
 57 52  1  0  0  0
 36 37  1  0  0  0
 51 58  1  0  0  0
  3  4  1  0  0  0
 27 29  1  0  0  0
 27 30  1  0  0  0
 28 31  1  0  0  0
 28 32  1  0  0  0
  8  9  1  0  0  0
 12 14  1  0  0  0
M  END
> <minimizedAffinity>
-7.65581

> <CNNscore>
0.5197963119

> <CNNaffinity>
7.7949752808

> <CNN_VS>
4.0517992973

> <CNNaffinity_variance>
0.6026486754

$$$$
[H]OC(=O)[C@@]([H])(N([H])C(=O)[C@@]([H])(N([H])C(=O)[C@]([H])(N([H])C(=O)[C@@]([H])(C([H])([H])c1c([H])c([H])c([H])c([H])c1[H])C([H])([H])C([H])([H])[H])C([H])([H])c1c([H])n([H])c2c([H])c([H])c([H])c([H])c12)C([H])([H])C([H])([H])C([H])([H])N=C(N([H])[H])N([H])[H])C([H])([H])c1c([H])c([H])c([H])c([H])c1[H]


 58 61  0  0  0  0  0  0  0  0999 V2000
    1.2158  -51.6772  -23.1213 C   0  0  0  0  0  0  0  0  0  0  0  0
    0.0114  -51.5978  -23.5190 O   0  0  0  0  0  0  0  0  0  0  0  0
    1.5371  -51.9316  -21.7964 N   0  0  0  0  0  0  0  0  0  0  0  0
    2.5153  -51.9908  -21.4707 H   0  0  0  0  0  0  0  0  0  0  0  0
    0.4706  -52.1197  -20.8374 C   0  0  0  0  0  0  0  0  0  0  0  0
    0.7073  -51.0768  -19.7748 C   0  0  0  0  0  0  0  0  0  0  0  0
    0.6985  -49.8773  -20.0680 O   0  0  0  0  0  0  0  0  0  0  0  0
    0.9320  -51.5284  -18.4494 N   0  0  0  0  0  0  0  0  0  0  0  0
    0.9594  -52.5150  -18.1370 H   0  0  0  0  0  0  0  0  0  0  0  0
    1.1516  -50.5164  -17.3874 C   0  0  0  0  0  0  0  0  0  0  0  0
    2.5805  -50.5836  -17.0395 C   0  0  0  0  0  0  0  0  0  0  0  0
    3.0579  -49.8653  -15.9662 O   0  0  0  0  0  0  0  0  0  0  0  0
    3.3731  -51.2770  -17.6995 O   0  0  0  0  0  0  0  0  0  0  0  0
    3.8266  -50.2605  -15.4249 H   0  0  0  0  0  0  0  0  0  0  0  0
    0.3066  -50.9739  -16.2473 C   0  0  0  0  0  0  0  0  0  0  0  0
   -0.7871  -50.0989  -15.8344 C   0  0  0  0  0  0  0  0  0  0  0  0
   -2.0206  -50.6255  -15.4325 C   0  0  0  0  0  0  0  0  0  0  0  0
   -3.0381  -49.8050  -15.0181 C   0  0  0  0  0  0  0  0  0  0  0  0
   -2.8937  -48.4385  -14.9790 C   0  0  0  0  0  0  0  0  0  0  0  0
   -1.6901  -47.9224  -15.3709 C   0  0  0  0  0  0  0  0  0  0  0  0
   -0.6590  -48.7342  -15.7895 C   0  0  0  0  0  0  0  0  0  0  0  0
    0.4008  -53.4799  -20.2454 C   0  0  0  0  0  0  0  0  0  0  0  0
   -0.9932  -54.0198  -20.3307 C   0  0  0  0  0  0  0  0  0  0  0  0
   -1.5525  -53.9346  -21.7395 C   0  0  0  0  0  0  0  0  0  0  0  0
   -1.5290  -55.2177  -22.4060 N   0  0  0  0  0  0  0  0  0  0  0  0
   -1.2480  -55.2594  -23.6734 C   0  0  0  0  0  0  0  0  0  0  0  0
   -1.2101  -56.4921  -24.3822 N   0  0  0  0  0  0  0  0  0  0  0  0
   -0.9700  -54.0745  -24.3856 N   0  0  0  0  0  0  0  0  0  0  0  0
   -0.3522  -57.0577  -24.4694 H   0  0  0  0  0  0  0  0  0  0  0  0
   -2.1035  -56.8079  -24.8192 H   0  0  0  0  0  0  0  0  0  0  0  0
   -1.6694  -53.7434  -25.0937 H   0  0  0  0  0  0  0  0  0  0  0  0
   -0.0954  -53.5293  -24.2232 H   0  0  0  0  0  0  0  0  0  0  0  0
    2.3108  -51.4800  -24.1439 C   0  0  0  0  0  0  0  0  0  0  0  0
    4.6513  -50.7589  -23.6712 C   0  0  0  0  0  0  0  0  0  0  0  0
    5.0708  -51.6579  -24.4199 O   0  0  0  0  0  0  0  0  0  0  0  0
    3.2536  -50.6119  -23.4997 N   0  0  0  0  0  0  0  0  0  0  0  0
    2.9284  -49.8443  -22.8737 H   0  0  0  0  0  0  0  0  0  0  0  0
    5.6554  -49.8913  -22.9929 C   0  0  0  0  0  0  0  0  0  0  0  0
    5.2685  -50.1743  -20.5780 C   0  0  0  0  0  0  0  0  0  0  0  0
    5.0717  -49.2570  -21.7571 C   0  0  0  0  0  0  0  0  0  0  0  0
    6.0991  -48.9165  -24.0477 C   0  0  0  0  0  0  0  0  0  0  0  0
    5.0695  -48.2748  -24.8390 C   0  0  0  0  0  0  0  0  0  0  0  0
    4.3706  -47.2081  -24.2589 C   0  0  0  0  0  0  0  0  0  0  0  0
    3.3970  -46.5279  -24.9558 C   0  0  0  0  0  0  0  0  0  0  0  0
    3.1080  -46.9060  -26.2448 C   0  0  0  0  0  0  0  0  0  0  0  0
    3.7802  -47.9464  -26.8291 C   0  0  0  0  0  0  0  0  0  0  0  0
    4.7472  -48.6101  -26.1149 C   0  0  0  0  0  0  0  0  0  0  0  0
    1.7553  -50.8885  -25.3932 C   0  0  0  0  0  0  0  0  0  0  0  0
    1.7109  -51.7620  -26.5682 C   0  0  0  0  0  0  0  0  0  0  0  0
    2.8337  -52.3074  -27.2017 C   0  0  0  0  0  0  0  0  0  0  0  0
    2.4007  -53.0080  -28.2578 N   0  0  0  0  0  0  0  0  0  0  0  0
    1.0791  -52.9565  -28.3530 C   0  0  0  0  0  0  0  0  0  0  0  0
    0.1578  -53.5087  -29.2392 C   0  0  0  0  0  0  0  0  0  0  0  0
   -1.1874  -53.2817  -29.0639 C   0  0  0  0  0  0  0  0  0  0  0  0
   -1.6392  -52.5180  -28.0280 C   0  0  0  0  0  0  0  0  0  0  0  0
   -0.7344  -51.9600  -27.1356 C   0  0  0  0  0  0  0  0  0  0  0  0
    0.6101  -52.1749  -27.2962 C   0  0  0  0  0  0  0  0  0  0  0  0
    3.0504  -53.5213  -28.9072 H   0  0  0  0  0  0  0  0  0  0  0  0
 39 40  1  0  0  0
 40 38  1  0  0  0
 38 41  1  0  0  0
 41 42  1  0  0  0
 42 43  2  0  0  0
 43 44  1  0  0  0
 44 45  2  0  0  0
 45 46  1  0  0  0
 46 47  2  0  0  0
 38 34  1  0  0  0
 34 35  2  0  0  0
 34 36  1  0  0  0
 36 33  1  0  0  0
 33 48  1  0  0  0
 48 49  1  0  0  0
 49 50  2  0  0  0
 50 51  1  0  0  0
 51 52  1  0  0  0
 52 53  2  0  0  0
 53 54  1  0  0  0
 54 55  2  0  0  0
 55 56  1  0  0  0
 56 57  2  0  0  0
 33  1  1  0  0  0
  1  2  2  0  0  0
  1  3  1  0  0  0
  3  5  1  0  0  0
  5 22  1  0  0  0
 22 23  1  0  0  0
 23 24  1  0  0  0
 24 25  1  0  0  0
 25 26  2  0  0  0
 26 27  1  0  0  0
 26 28  1  0  0  0
  5  6  1  0  0  0
  6  7  2  0  0  0
  6  8  1  0  0  0
  8 10  1  0  0  0
 10 15  1  0  0  0
 15 16  1  0  0  0
 16 17  2  0  0  0
 17 18  1  0  0  0
 18 19  2  0  0  0
 19 20  1  0  0  0
 20 21  2  0  0  0
 10 11  1  0  0  0
 11 12  1  0  0  0
 11 13  2  0  0  0
 47 42  1  0  0  0
 57 49  1  0  0  0
 21 16  1  0  0  0
 57 52  1  0  0  0
 36 37  1  0  0  0
 51 58  1  0  0  0
  3  4  1  0  0  0
 27 29  1  0  0  0
 27 30  1  0  0  0
 28 31  1  0  0  0
 28 32  1  0  0  0
  8  9  1  0  0  0
 12 14  1  0  0  0
M  END
> <minimizedAffinity>
-8.12275

> <CNNscore>
0.4768613279

> <CNNaffinity>
7.6913566589

> <CNN_VS>
3.6677105427

> <CNNaffinity_variance>
0.3997024298

$$$$
[H]OC(=O)[C@@]([H])(N([H])C(=O)[C@@]([H])(N([H])C(=O)[C@]([H])(N([H])C(=O)[C@@]([H])(C([H])([H])c1c([H])c([H])c([H])c([H])c1[H])C([H])([H])C([H])([H])[H])C([H])([H])c1c([H])n([H])c2c([H])c([H])c([H])c([H])c12)C([H])([H])C([H])([H])C([H])([H])N=C(N([H])[H])N([H])[H])C([H])([H])c1c([H])c([H])c([H])c([H])c1[H]


 58 61  0  0  0  0  0  0  0  0999 V2000
    1.3001  -51.2952  -22.3603 C   0  0  0  0  0  0  0  0  0  0  0  0
    0.1359  -50.9530  -22.7379 O   0  0  0  0  0  0  0  0  0  0  0  0
    1.5770  -51.6293  -21.0430 N   0  0  0  0  0  0  0  0  0  0  0  0
    2.5237  -51.9022  -20.7337 H   0  0  0  0  0  0  0  0  0  0  0  0
    0.5082  -51.5946  -20.0688 C   0  0  0  0  0  0  0  0  0  0  0  0
    0.9524  -50.5945  -19.0317 C   0  0  0  0  0  0  0  0  0  0  0  0
    1.0459  -49.3979  -19.3218 O   0  0  0  0  0  0  0  0  0  0  0  0
    1.2478  -51.0819  -17.7332 N   0  0  0  0  0  0  0  0  0  0  0  0
    1.1974  -52.0691  -17.4254 H   0  0  0  0  0  0  0  0  0  0  0  0
    1.6715  -50.1108  -16.6951 C   0  0  0  0  0  0  0  0  0  0  0  0
    3.0934  -50.3833  -16.4279 C   0  0  0  0  0  0  0  0  0  0  0  0
    3.8253  -49.5069  -15.6585 O   0  0  0  0  0  0  0  0  0  0  0  0
    3.6539  -51.3931  -16.8870 O   0  0  0  0  0  0  0  0  0  0  0  0
    4.5653  -49.8856  -15.0676 H   0  0  0  0  0  0  0  0  0  0  0  0
    0.8362  -50.4396  -15.5047 C   0  0  0  0  0  0  0  0  0  0  0  0
   -0.4114  -49.6989  -15.3401 C   0  0  0  0  0  0  0  0  0  0  0  0
   -0.4355  -48.3007  -15.4092 C   0  0  0  0  0  0  0  0  0  0  0  0
   -1.6114  -47.6068  -15.2826 C   0  0  0  0  0  0  0  0  0  0  0  0
   -2.8107  -48.2483  -15.0835 C   0  0  0  0  0  0  0  0  0  0  0  0
   -2.7895  -49.6135  -15.0158 C   0  0  0  0  0  0  0  0  0  0  0  0
   -1.6160  -50.3237  -15.1414 C   0  0  0  0  0  0  0  0  0  0  0  0
    0.1926  -52.9055  -19.4466 C   0  0  0  0  0  0  0  0  0  0  0  0
    0.0759  -53.9700  -20.4932 C   0  0  0  0  0  0  0  0  0  0  0  0
   -1.2207  -53.8609  -21.2754 C   0  0  0  0  0  0  0  0  0  0  0  0
   -1.4509  -55.0263  -22.1000 N   0  0  0  0  0  0  0  0  0  0  0  0
   -1.1612  -54.9651  -23.3647 C   0  0  0  0  0  0  0  0  0  0  0  0
   -1.3662  -56.0792  -24.2250 N   0  0  0  0  0  0  0  0  0  0  0  0
   -0.6309  -53.7835  -23.9224 N   0  0  0  0  0  0  0  0  0  0  0  0
   -0.6424  -56.7949  -24.3905 H   0  0  0  0  0  0  0  0  0  0  0  0
   -2.2973  -56.1449  -24.6913 H   0  0  0  0  0  0  0  0  0  0  0  0
   -1.2335  -53.2276  -24.5768 H   0  0  0  0  0  0  0  0  0  0  0  0
    0.3344  -53.4566  -23.6991 H   0  0  0  0  0  0  0  0  0  0  0  0
    2.3977  -51.3264  -23.3984 C   0  0  0  0  0  0  0  0  0  0  0  0
    4.7624  -50.8054  -22.8001 C   0  0  0  0  0  0  0  0  0  0  0  0
    5.1017  -51.9352  -23.1911 O   0  0  0  0  0  0  0  0  0  0  0  0
    3.3993  -50.4337  -22.8912 N   0  0  0  0  0  0  0  0  0  0  0  0
    3.1432  -49.4772  -22.5648 H   0  0  0  0  0  0  0  0  0  0  0  0
    5.8202  -49.9107  -22.2510 C   0  0  0  0  0  0  0  0  0  0  0  0
    4.5510  -50.5607  -20.2440 C   0  0  0  0  0  0  0  0  0  0  0  0
    5.8385  -49.9593  -20.7453 C   0  0  0  0  0  0  0  0  0  0  0  0
    5.5202  -48.5565  -22.8306 C   0  0  0  0  0  0  0  0  0  0  0  0
    5.3161  -47.4635  -21.9023 C   0  0  0  0  0  0  0  0  0  0  0  0
    6.4440  -46.7502  -21.4761 C   0  0  0  0  0  0  0  0  0  0  0  0
    6.3306  -45.6802  -20.6166 C   0  0  0  0  0  0  0  0  0  0  0  0
    5.0855  -45.3084  -20.1704 C   0  0  0  0  0  0  0  0  0  0  0  0
    3.9709  -45.9935  -20.5755 C   0  0  0  0  0  0  0  0  0  0  0  0
    4.1081  -47.0571  -21.4331 C   0  0  0  0  0  0  0  0  0  0  0  0
    1.8719  -50.8961  -24.7242 C   0  0  0  0  0  0  0  0  0  0  0  0
    2.0307  -51.8429  -25.8306 C   0  0  0  0  0  0  0  0  0  0  0  0
    3.2273  -52.4874  -26.1656 C   0  0  0  0  0  0  0  0  0  0  0  0
    2.9931  -53.2336  -27.2528 N   0  0  0  0  0  0  0  0  0  0  0  0
    1.7315  -53.1196  -27.6450 C   0  0  0  0  0  0  0  0  0  0  0  0
    0.9945  -53.6810  -28.6844 C   0  0  0  0  0  0  0  0  0  0  0  0
   -0.3383  -53.3728  -28.8282 C   0  0  0  0  0  0  0  0  0  0  0  0
   -0.9564  -52.5188  -27.9627 C   0  0  0  0  0  0  0  0  0  0  0  0
   -0.2364  -51.9503  -26.9212 C   0  0  0  0  0  0  0  0  0  0  0  0
    1.0933  -52.2454  -26.7640 C   0  0  0  0  0  0  0  0  0  0  0  0
    3.7350  -53.8225  -27.7112 H   0  0  0  0  0  0  0  0  0  0  0  0
 39 40  1  0  0  0
 40 38  1  0  0  0
 38 41  1  0  0  0
 41 42  1  0  0  0
 42 43  2  0  0  0
 43 44  1  0  0  0
 44 45  2  0  0  0
 45 46  1  0  0  0
 46 47  2  0  0  0
 38 34  1  0  0  0
 34 35  2  0  0  0
 34 36  1  0  0  0
 36 33  1  0  0  0
 33 48  1  0  0  0
 48 49  1  0  0  0
 49 50  2  0  0  0
 50 51  1  0  0  0
 51 52  1  0  0  0
 52 53  2  0  0  0
 53 54  1  0  0  0
 54 55  2  0  0  0
 55 56  1  0  0  0
 56 57  2  0  0  0
 33  1  1  0  0  0
  1  2  2  0  0  0
  1  3  1  0  0  0
  3  5  1  0  0  0
  5 22  1  0  0  0
 22 23  1  0  0  0
 23 24  1  0  0  0
 24 25  1  0  0  0
 25 26  2  0  0  0
 26 27  1  0  0  0
 26 28  1  0  0  0
  5  6  1  0  0  0
  6  7  2  0  0  0
  6  8  1  0  0  0
  8 10  1  0  0  0
 10 15  1  0  0  0
 15 16  1  0  0  0
 16 17  2  0  0  0
 17 18  1  0  0  0
 18 19  2  0  0  0
 19 20  1  0  0  0
 20 21  2  0  0  0
 10 11  1  0  0  0
 11 12  1  0  0  0
 11 13  2  0  0  0
 47 42  1  0  0  0
 57 49  1  0  0  0
 21 16  1  0  0  0
 57 52  1  0  0  0
 36 37  1  0  0  0
 51 58  1  0  0  0
  3  4  1  0  0  0
 27 29  1  0  0  0
 27 30  1  0  0  0
 28 31  1  0  0  0
 28 32  1  0  0  0
  8  9  1  0  0  0
 12 14  1  0  0  0
M  END
> <minimizedAffinity>
-7.81660

> <CNNscore>
0.4091077447

> <CNNaffinity>
7.5447783470

> <CNN_VS>
3.0866272449

> <CNNaffinity_variance>
0.2704899907

$$$$
[H]OC(=O)[C@@]([H])(N([H])C(=O)[C@@]([H])(N([H])C(=O)[C@]([H])(N([H])C(=O)[C@@]([H])(C([H])([H])c1c([H])c([H])c([H])c([H])c1[H])C([H])([H])C([H])([H])[H])C([H])([H])c1c([H])n([H])c2c([H])c([H])c([H])c([H])c12)C([H])([H])C([H])([H])C([H])([H])N=C(N([H])[H])N([H])[H])C([H])([H])c1c([H])c([H])c([H])c([H])c1[H]


 58 61  0  0  0  0  0  0  0  0999 V2000
    1.8297  -51.4430  -19.9289 C   0  0  0  0  0  0  0  0  0  0  0  0
    2.7261  -52.3438  -19.9100 O   0  0  0  0  0  0  0  0  0  0  0  0
    0.8209  -51.4299  -20.8805 N   0  0  0  0  0  0  0  0  0  0  0  0
    0.0952  -50.6956  -20.9006 H   0  0  0  0  0  0  0  0  0  0  0  0
    0.7816  -52.4763  -21.8786 C   0  0  0  0  0  0  0  0  0  0  0  0
    1.5492  -51.9282  -23.0548 C   0  0  0  0  0  0  0  0  0  0  0  0
    1.0455  -51.0625  -23.7771 O   0  0  0  0  0  0  0  0  0  0  0  0
    2.8514  -52.4401  -23.2857 N   0  0  0  0  0  0  0  0  0  0  0  0
    3.3293  -53.1682  -22.7260 H   0  0  0  0  0  0  0  0  0  0  0  0
    3.6280  -51.9020  -24.4291 C   0  0  0  0  0  0  0  0  0  0  0  0
    3.2271  -52.6863  -25.6087 C   0  0  0  0  0  0  0  0  0  0  0  0
    3.5930  -52.2648  -26.8674 O   0  0  0  0  0  0  0  0  0  0  0  0
    2.5579  -53.7272  -25.4940 O   0  0  0  0  0  0  0  0  0  0  0  0
    3.7863  -52.9724  -27.5759 H   0  0  0  0  0  0  0  0  0  0  0  0
    5.0527  -52.1652  -24.0771 C   0  0  0  0  0  0  0  0  0  0  0  0
    5.7184  -51.1906  -23.2171 C   0  0  0  0  0  0  0  0  0  0  0  0
    5.3868  -51.0786  -21.8615 C   0  0  0  0  0  0  0  0  0  0  0  0
    6.0316  -50.1828  -21.0477 C   0  0  0  0  0  0  0  0  0  0  0  0
    7.0253  -49.3606  -21.5232 C   0  0  0  0  0  0  0  0  0  0  0  0
    7.3507  -49.4685  -22.8465 C   0  0  0  0  0  0  0  0  0  0  0  0
    6.7117  -50.3637  -23.6757 C   0  0  0  0  0  0  0  0  0  0  0  0
   -0.5839  -52.8989  -22.2815 C   0  0  0  0  0  0  0  0  0  0  0  0
   -0.6796  -54.3924  -22.3293 C   0  0  0  0  0  0  0  0  0  0  0  0
   -1.0380  -54.8968  -23.7157 C   0  0  0  0  0  0  0  0  0  0  0  0
   -0.9148  -53.8581  -24.7143 N   0  0  0  0  0  0  0  0  0  0  0  0
   -0.4051  -54.1590  -25.8705 C   0  0  0  0  0  0  0  0  0  0  0  0
   -0.2589  -53.1795  -26.8916 N   0  0  0  0  0  0  0  0  0  0  0  0
    0.0192  -55.4751  -26.1464 N   0  0  0  0  0  0  0  0  0  0  0  0
   -0.9938  -52.9894  -27.5896 H   0  0  0  0  0  0  0  0  0  0  0  0
    0.6400  -52.6500  -26.9064 H   0  0  0  0  0  0  0  0  0  0  0  0
    1.0480  -55.6574  -26.2397 H   0  0  0  0  0  0  0  0  0  0  0  0
   -0.6605  -56.2589  -26.2570 H   0  0  0  0  0  0  0  0  0  0  0  0
    1.8919  -50.3636  -18.8733 C   0  0  0  0  0  0  0  0  0  0  0  0
    1.3290  -50.6927  -16.4657 C   0  0  0  0  0  0  0  0  0  0  0  0
    2.4018  -50.1509  -16.1493 O   0  0  0  0  0  0  0  0  0  0  0  0
    1.0087  -50.8195  -17.8390 N   0  0  0  0  0  0  0  0  0  0  0  0
    0.0987  -51.2693  -18.0766 H   0  0  0  0  0  0  0  0  0  0  0  0
    0.4454  -51.1824  -15.3702 C   0  0  0  0  0  0  0  0  0  0  0  0
    0.3158  -52.4532  -13.2654 C   0  0  0  0  0  0  0  0  0  0  0  0
    1.2120  -52.0532  -14.4088 C   0  0  0  0  0  0  0  0  0  0  0  0
   -0.6920  -51.8724  -16.0702 C   0  0  0  0  0  0  0  0  0  0  0  0
   -2.0281  -51.3671  -15.8304 C   0  0  0  0  0  0  0  0  0  0  0  0
   -3.1086  -52.1641  -16.2305 C   0  0  0  0  0  0  0  0  0  0  0  0
   -4.4091  -51.7674  -16.0123 C   0  0  0  0  0  0  0  0  0  0  0  0
   -4.6475  -50.5658  -15.3900 C   0  0  0  0  0  0  0  0  0  0  0  0
   -3.6045  -49.7727  -14.9917 C   0  0  0  0  0  0  0  0  0  0  0  0
   -2.3159  -50.1888  -15.2196 C   0  0  0  0  0  0  0  0  0  0  0  0
    1.4705  -49.0535  -19.4436 C   0  0  0  0  0  0  0  0  0  0  0  0
    2.5413  -48.1528  -19.8769 C   0  0  0  0  0  0  0  0  0  0  0  0
    3.2189  -47.2567  -19.0419 C   0  0  0  0  0  0  0  0  0  0  0  0
    4.0890  -46.5774  -19.8003 N   0  0  0  0  0  0  0  0  0  0  0  0
    4.0244  -46.9697  -21.0654 C   0  0  0  0  0  0  0  0  0  0  0  0
    4.7061  -46.5995  -22.2216 C   0  0  0  0  0  0  0  0  0  0  0  0
    4.4194  -47.2161  -23.4172 C   0  0  0  0  0  0  0  0  0  0  0  0
    3.4701  -48.1927  -23.4910 C   0  0  0  0  0  0  0  0  0  0  0  0
    2.7810  -48.5736  -22.3480 C   0  0  0  0  0  0  0  0  0  0  0  0
    3.0532  -47.9684  -21.1482 C   0  0  0  0  0  0  0  0  0  0  0  0
    4.7268  -45.8359  -19.4120 H   0  0  0  0  0  0  0  0  0  0  0  0
 39 40  1  0  0  0
 40 38  1  0  0  0
 38 41  1  0  0  0
 41 42  1  0  0  0
 42 43  2  0  0  0
 43 44  1  0  0  0
 44 45  2  0  0  0
 45 46  1  0  0  0
 46 47  2  0  0  0
 38 34  1  0  0  0
 34 35  2  0  0  0
 34 36  1  0  0  0
 36 33  1  0  0  0
 33 48  1  0  0  0
 48 49  1  0  0  0
 49 50  2  0  0  0
 50 51  1  0  0  0
 51 52  1  0  0  0
 52 53  2  0  0  0
 53 54  1  0  0  0
 54 55  2  0  0  0
 55 56  1  0  0  0
 56 57  2  0  0  0
 33  1  1  0  0  0
  1  2  2  0  0  0
  1  3  1  0  0  0
  3  5  1  0  0  0
  5 22  1  0  0  0
 22 23  1  0  0  0
 23 24  1  0  0  0
 24 25  1  0  0  0
 25 26  2  0  0  0
 26 27  1  0  0  0
 26 28  1  0  0  0
  5  6  1  0  0  0
  6  7  2  0  0  0
  6  8  1  0  0  0
  8 10  1  0  0  0
 10 15  1  0  0  0
 15 16  1  0  0  0
 16 17  2  0  0  0
 17 18  1  0  0  0
 18 19  2  0  0  0
 19 20  1  0  0  0
 20 21  2  0  0  0
 10 11  1  0  0  0
 11 12  1  0  0  0
 11 13  2  0  0  0
 47 42  1  0  0  0
 57 49  1  0  0  0
 21 16  1  0  0  0
 57 52  1  0  0  0
 36 37  1  0  0  0
 51 58  1  0  0  0
  3  4  1  0  0  0
 27 29  1  0  0  0
 27 30  1  0  0  0
 28 31  1  0  0  0
 28 32  1  0  0  0
  8  9  1  0  0  0
 12 14  1  0  0  0
M  END
> <minimizedAffinity>
-8.04104

> <CNNscore>
0.1419045776

> <CNNaffinity>
7.0125794411

> <CNN_VS>
0.9951171279

> <CNNaffinity_variance>
0.6857559085

$$$$
[H]OC(=O)[C@@]([H])(N([H])C(=O)[C@@]([H])(N([H])C(=O)[C@]([H])(N([H])C(=O)[C@@]([H])(C([H])([H])c1c([H])c([H])c([H])c([H])c1[H])C([H])([H])C([H])([H])[H])C([H])([H])c1c([H])n([H])c2c([H])c([H])c([H])c([H])c12)C([H])([H])C([H])([H])C([H])([H])N=C(N([H])[H])N([H])[H])C([H])([H])c1c([H])c([H])c([H])c([H])c1[H]


 58 61  0  0  0  0  0  0  0  0999 V2000
    4.5610  -50.2748  -24.8371 C   0  0  0  0  0  0  0  0  0  0  0  0
    5.6097  -50.8573  -24.4179 O   0  0  0  0  0  0  0  0  0  0  0  0
    4.5970  -49.0017  -25.3862 N   0  0  0  0  0  0  0  0  0  0  0  0
    3.7448  -48.5248  -25.7222 H   0  0  0  0  0  0  0  0  0  0  0  0
    5.8668  -48.3170  -25.4924 C   0  0  0  0  0  0  0  0  0  0  0  0
    5.5965  -46.9099  -25.0233 C   0  0  0  0  0  0  0  0  0  0  0  0
    6.4737  -46.0455  -25.1127 O   0  0  0  0  0  0  0  0  0  0  0  0
    4.3129  -46.6306  -24.4893 N   0  0  0  0  0  0  0  0  0  0  0  0
    3.5369  -47.3070  -24.3793 H   0  0  0  0  0  0  0  0  0  0  0  0
    4.0231  -45.2480  -24.0367 C   0  0  0  0  0  0  0  0  0  0  0  0
    3.6678  -45.3441  -22.6113 C   0  0  0  0  0  0  0  0  0  0  0  0
    3.3080  -46.5607  -22.0762 O   0  0  0  0  0  0  0  0  0  0  0  0
    3.6823  -44.3436  -21.8741 O   0  0  0  0  0  0  0  0  0  0  0  0
    3.5563  -46.7534  -21.1060 H   0  0  0  0  0  0  0  0  0  0  0  0
    2.8472  -44.8220  -24.8483 C   0  0  0  0  0  0  0  0  0  0  0  0
    2.9403  -44.9887  -26.2960 C   0  0  0  0  0  0  0  0  0  0  0  0
    3.9505  -44.3577  -27.0320 C   0  0  0  0  0  0  0  0  0  0  0  0
    4.0546  -44.5368  -28.3875 C   0  0  0  0  0  0  0  0  0  0  0  0
    3.1779  -45.3381  -29.0795 C   0  0  0  0  0  0  0  0  0  0  0  0
    2.1908  -45.9551  -28.3629 C   0  0  0  0  0  0  0  0  0  0  0  0
    2.0741  -45.7847  -27.0010 C   0  0  0  0  0  0  0  0  0  0  0  0
    6.4628  -48.3217  -26.8527 C   0  0  0  0  0  0  0  0  0  0  0  0
    5.4106  -48.0743  -27.8888 C   0  0  0  0  0  0  0  0  0  0  0  0
    5.8369  -48.5613  -29.2621 C   0  0  0  0  0  0  0  0  0  0  0  0
    4.7231  -48.6168  -30.1827 N   0  0  0  0  0  0  0  0  0  0  0  0
    4.7595  -47.8830  -31.2539 C   0  0  0  0  0  0  0  0  0  0  0  0
    3.6934  -47.8957  -32.1954 N   0  0  0  0  0  0  0  0  0  0  0  0
    5.8660  -47.0485  -31.5140 N   0  0  0  0  0  0  0  0  0  0  0  0
    3.6637  -48.5480  -32.9936 H   0  0  0  0  0  0  0  0  0  0  0  0
    2.9266  -47.2046  -32.0431 H   0  0  0  0  0  0  0  0  0  0  0  0
    5.7329  -46.0101  -31.4487 H   0  0  0  0  0  0  0  0  0  0  0  0
    6.8003  -47.4388  -31.7657 H   0  0  0  0  0  0  0  0  0  0  0  0
    3.2481  -51.0133  -24.7175 C   0  0  0  0  0  0  0  0  0  0  0  0
    2.5764  -49.9975  -22.5408 C   0  0  0  0  0  0  0  0  0  0  0  0
    2.3712  -48.9162  -23.1180 O   0  0  0  0  0  0  0  0  0  0  0  0
    3.0138  -51.1058  -23.3055 N   0  0  0  0  0  0  0  0  0  0  0  0
    3.1695  -52.0032  -22.7981 H   0  0  0  0  0  0  0  0  0  0  0  0
    2.3524  -50.0554  -21.0686 C   0  0  0  0  0  0  0  0  0  0  0  0
    3.6714  -50.8420  -19.1443 C   0  0  0  0  0  0  0  0  0  0  0  0
    3.0595  -51.2398  -20.4625 C   0  0  0  0  0  0  0  0  0  0  0  0
    0.8580  -50.0670  -20.9052 C   0  0  0  0  0  0  0  0  0  0  0  0
    0.2003  -51.3571  -20.8715 C   0  0  0  0  0  0  0  0  0  0  0  0
   -0.0502  -51.9292  -19.6175 C   0  0  0  0  0  0  0  0  0  0  0  0
   -0.6964  -53.1395  -19.5000 C   0  0  0  0  0  0  0  0  0  0  0  0
   -1.1014  -53.7959  -20.6370 C   0  0  0  0  0  0  0  0  0  0  0  0
   -0.8654  -53.2529  -21.8720 C   0  0  0  0  0  0  0  0  0  0  0  0
   -0.2194  -52.0447  -21.9649 C   0  0  0  0  0  0  0  0  0  0  0  0
    3.3428  -52.3509  -25.3666 C   0  0  0  0  0  0  0  0  0  0  0  0
    2.4596  -52.5877  -26.5110 C   0  0  0  0  0  0  0  0  0  0  0  0
    2.8907  -52.9576  -27.7903 C   0  0  0  0  0  0  0  0  0  0  0  0
    1.8077  -53.0353  -28.5744 N   0  0  0  0  0  0  0  0  0  0  0  0
    0.7069  -52.7436  -27.8950 C   0  0  0  0  0  0  0  0  0  0  0  0
   -0.6434  -52.6914  -28.2308 C   0  0  0  0  0  0  0  0  0  0  0  0
   -1.5779  -52.3625  -27.2766 C   0  0  0  0  0  0  0  0  0  0  0  0
   -1.2018  -52.0838  -25.9955 C   0  0  0  0  0  0  0  0  0  0  0  0
    0.1400  -52.1311  -25.6439 C   0  0  0  0  0  0  0  0  0  0  0  0
    1.0850  -52.4558  -26.5828 C   0  0  0  0  0  0  0  0  0  0  0  0
    1.8580  -53.2970  -29.5924 H   0  0  0  0  0  0  0  0  0  0  0  0
 39 40  1  0  0  0
 40 38  1  0  0  0
 38 41  1  0  0  0
 41 42  1  0  0  0
 42 43  2  0  0  0
 43 44  1  0  0  0
 44 45  2  0  0  0
 45 46  1  0  0  0
 46 47  2  0  0  0
 38 34  1  0  0  0
 34 35  2  0  0  0
 34 36  1  0  0  0
 36 33  1  0  0  0
 33 48  1  0  0  0
 48 49  1  0  0  0
 49 50  2  0  0  0
 50 51  1  0  0  0
 51 52  1  0  0  0
 52 53  2  0  0  0
 53 54  1  0  0  0
 54 55  2  0  0  0
 55 56  1  0  0  0
 56 57  2  0  0  0
 33  1  1  0  0  0
  1  2  2  0  0  0
  1  3  1  0  0  0
  3  5  1  0  0  0
  5 22  1  0  0  0
 22 23  1  0  0  0
 23 24  1  0  0  0
 24 25  1  0  0  0
 25 26  2  0  0  0
 26 27  1  0  0  0
 26 28  1  0  0  0
  5  6  1  0  0  0
  6  7  2  0  0  0
  6  8  1  0  0  0
  8 10  1  0  0  0
 10 15  1  0  0  0
 15 16  1  0  0  0
 16 17  2  0  0  0
 17 18  1  0  0  0
 18 19  2  0  0  0
 19 20  1  0  0  0
 20 21  2  0  0  0
 10 11  1  0  0  0
 11 12  1  0  0  0
 11 13  2  0  0  0
 47 42  1  0  0  0
 57 49  1  0  0  0
 21 16  1  0  0  0
 57 52  1  0  0  0
 36 37  1  0  0  0
 51 58  1  0  0  0
  3  4  1  0  0  0
 27 29  1  0  0  0
 27 30  1  0  0  0
 28 31  1  0  0  0
 28 32  1  0  0  0
  8  9  1  0  0  0
 12 14  1  0  0  0
M  END
> <minimizedAffinity>
-8.15067

> <CNNscore>
0.1386086047

> <CNNaffinity>
6.9315924644

> <CNN_VS>
0.9607783556

> <CNNaffinity_variance>
0.7501422167

$$$$
[H]OC(=O)[C@@]([H])(N([H])C(=O)[C@@]([H])(N([H])C(=O)[C@]([H])(N([H])C(=O)[C@@]([H])(C([H])([H])c1c([H])c([H])c([H])c([H])c1[H])C([H])([H])C([H])([H])[H])C([H])([H])c1c([H])n([H])c2c([H])c([H])c([H])c([H])c12)C([H])([H])C([H])([H])C([H])([H])N=C(N([H])[H])N([H])[H])C([H])([H])c1c([H])c([H])c([H])c([H])c1[H]


 58 61  0  0  0  0  0  0  0  0999 V2000
    1.3112  -51.2912  -19.5753 C   0  0  0  0  0  0  0  0  0  0  0  0
    2.2692  -52.1190  -19.4652 O   0  0  0  0  0  0  0  0  0  0  0  0
    0.3813  -51.3753  -20.6008 N   0  0  0  0  0  0  0  0  0  0  0  0
   -0.3944  -50.7000  -20.6947 H   0  0  0  0  0  0  0  0  0  0  0  0
    0.4992  -52.4410  -21.5718 C   0  0  0  0  0  0  0  0  0  0  0  0
    1.2203  -51.8275  -22.7450 C   0  0  0  0  0  0  0  0  0  0  0  0
    0.7905  -50.7948  -23.2680 O   0  0  0  0  0  0  0  0  0  0  0  0
    2.3933  -52.4763  -23.2077 N   0  0  0  0  0  0  0  0  0  0  0  0
    2.8033  -53.3450  -22.8215 H   0  0  0  0  0  0  0  0  0  0  0  0
    3.1251  -51.8790  -24.3513 C   0  0  0  0  0  0  0  0  0  0  0  0
    2.5247  -52.4463  -25.5698 C   0  0  0  0  0  0  0  0  0  0  0  0
    1.4386  -51.8289  -26.1488 O   0  0  0  0  0  0  0  0  0  0  0  0
    2.9772  -53.4799  -26.0908 O   0  0  0  0  0  0  0  0  0  0  0  0
    1.3468  -51.8664  -27.1638 H   0  0  0  0  0  0  0  0  0  0  0  0
    4.5316  -52.3458  -24.1868 C   0  0  0  0  0  0  0  0  0  0  0  0
    5.4222  -51.5109  -23.3854 C   0  0  0  0  0  0  0  0  0  0  0  0
    5.0411  -51.0603  -22.1158 C   0  0  0  0  0  0  0  0  0  0  0  0
    5.8886  -50.2998  -21.3519 C   0  0  0  0  0  0  0  0  0  0  0  0
    7.1414  -49.9482  -21.7953 C   0  0  0  0  0  0  0  0  0  0  0  0
    7.5154  -50.3872  -23.0347 C   0  0  0  0  0  0  0  0  0  0  0  0
    6.6748  -51.1519  -23.8131 C   0  0  0  0  0  0  0  0  0  0  0  0
   -0.7916  -53.0427  -21.9929 C   0  0  0  0  0  0  0  0  0  0  0  0
   -0.6367  -54.5147  -22.2192 C   0  0  0  0  0  0  0  0  0  0  0  0
   -1.4638  -55.0009  -23.3958 C   0  0  0  0  0  0  0  0  0  0  0  0
   -0.6311  -55.4406  -24.4933 N   0  0  0  0  0  0  0  0  0  0  0  0
   -0.4342  -54.6334  -25.4917 C   0  0  0  0  0  0  0  0  0  0  0  0
    0.3750  -55.0107  -26.5990 N   0  0  0  0  0  0  0  0  0  0  0  0
   -1.0213  -53.3514  -25.5039 N   0  0  0  0  0  0  0  0  0  0  0  0
    1.3905  -54.8341  -26.6319 H   0  0  0  0  0  0  0  0  0  0  0  0
   -0.1098  -55.4831  -27.3931 H   0  0  0  0  0  0  0  0  0  0  0  0
   -1.7909  -53.1626  -26.1912 H   0  0  0  0  0  0  0  0  0  0  0  0
   -0.7098  -52.5991  -24.8515 H   0  0  0  0  0  0  0  0  0  0  0  0
    1.2091  -50.1895  -18.5461 C   0  0  0  0  0  0  0  0  0  0  0  0
    2.4042  -48.4361  -19.8570 C   0  0  0  0  0  0  0  0  0  0  0  0
    1.4116  -48.3239  -20.5963 O   0  0  0  0  0  0  0  0  0  0  0  0
    2.3561  -49.3628  -18.7877 N   0  0  0  0  0  0  0  0  0  0  0  0
    3.1986  -49.4304  -18.1773 H   0  0  0  0  0  0  0  0  0  0  0  0
    3.5918  -47.5850  -20.1502 C   0  0  0  0  0  0  0  0  0  0  0  0
    3.9882  -45.2476  -19.4859 C   0  0  0  0  0  0  0  0  0  0  0  0
    3.8966  -46.6688  -18.9936 C   0  0  0  0  0  0  0  0  0  0  0  0
    3.2551  -46.8811  -21.4352 C   0  0  0  0  0  0  0  0  0  0  0  0
    4.0133  -47.2457  -22.6144 C   0  0  0  0  0  0  0  0  0  0  0  0
    3.3826  -48.0498  -23.5727 C   0  0  0  0  0  0  0  0  0  0  0  0
    4.0259  -48.4161  -24.7339 C   0  0  0  0  0  0  0  0  0  0  0  0
    5.3113  -47.9829  -24.9529 C   0  0  0  0  0  0  0  0  0  0  0  0
    5.9447  -47.1963  -24.0278 C   0  0  0  0  0  0  0  0  0  0  0  0
    5.2835  -46.8434  -22.8772 C   0  0  0  0  0  0  0  0  0  0  0  0
    1.2009  -50.7619  -17.1707 C   0  0  0  0  0  0  0  0  0  0  0  0
   -0.0549  -50.6553  -16.4242 C   0  0  0  0  0  0  0  0  0  0  0  0
   -0.3104  -49.7144  -15.4198 C   0  0  0  0  0  0  0  0  0  0  0  0
   -1.5381  -49.9567  -14.9426 N   0  0  0  0  0  0  0  0  0  0  0  0
   -2.0960  -50.9855  -15.5660 C   0  0  0  0  0  0  0  0  0  0  0  0
   -3.3316  -51.6184  -15.4586 C   0  0  0  0  0  0  0  0  0  0  0  0
   -3.6343  -52.6812  -16.2775 C   0  0  0  0  0  0  0  0  0  0  0  0
   -2.7373  -53.1305  -17.2015 C   0  0  0  0  0  0  0  0  0  0  0  0
   -1.5010  -52.5112  -17.3217 C   0  0  0  0  0  0  0  0  0  0  0  0
   -1.1822  -51.4513  -16.5124 C   0  0  0  0  0  0  0  0  0  0  0  0
   -1.9741  -49.3862  -14.1733 H   0  0  0  0  0  0  0  0  0  0  0  0
 39 40  1  0  0  0
 40 38  1  0  0  0
 38 41  1  0  0  0
 41 42  1  0  0  0
 42 43  2  0  0  0
 43 44  1  0  0  0
 44 45  2  0  0  0
 45 46  1  0  0  0
 46 47  2  0  0  0
 38 34  1  0  0  0
 34 35  2  0  0  0
 34 36  1  0  0  0
 36 33  1  0  0  0
 33 48  1  0  0  0
 48 49  1  0  0  0
 49 50  2  0  0  0
 50 51  1  0  0  0
 51 52  1  0  0  0
 52 53  2  0  0  0
 53 54  1  0  0  0
 54 55  2  0  0  0
 55 56  1  0  0  0
 56 57  2  0  0  0
 33  1  1  0  0  0
  1  2  2  0  0  0
  1  3  1  0  0  0
  3  5  1  0  0  0
  5 22  1  0  0  0
 22 23  1  0  0  0
 23 24  1  0  0  0
 24 25  1  0  0  0
 25 26  2  0  0  0
 26 27  1  0  0  0
 26 28  1  0  0  0
  5  6  1  0  0  0
  6  7  2  0  0  0
  6  8  1  0  0  0
  8 10  1  0  0  0
 10 15  1  0  0  0
 15 16  1  0  0  0
 16 17  2  0  0  0
 17 18  1  0  0  0
 18 19  2  0  0  0
 19 20  1  0  0  0
 20 21  2  0  0  0
 10 11  1  0  0  0
 11 12  1  0  0  0
 11 13  2  0  0  0
 47 42  1  0  0  0
 57 49  1  0  0  0
 21 16  1  0  0  0
 57 52  1  0  0  0
 36 37  1  0  0  0
 51 58  1  0  0  0
  3  4  1  0  0  0
 27 29  1  0  0  0
 27 30  1  0  0  0
 28 31  1  0  0  0
 28 32  1  0  0  0
  8  9  1  0  0  0
 12 14  1  0  0  0
M  END
> <minimizedAffinity>
-7.46280

> <CNNscore>
0.1300732493

> <CNNaffinity>
6.8064522743

> <CNN_VS>
0.8853373528

> <CNNaffinity_variance>
1.1750285625

$$$$
[H]OC(=O)[C@@]([H])(N([H])C(=O)[C@@]([H])(N([H])C(=O)[C@]([H])(N([H])C(=O)[C@@]([H])(C([H])([H])c1c([H])c([H])c([H])c([H])c1[H])C([H])([H])C([H])([H])[H])C([H])([H])c1c([H])n([H])c2c([H])c([H])c([H])c([H])c12)C([H])([H])C([H])([H])C([H])([H])N=C(N([H])[H])N([H])[H])C([H])([H])c1c([H])c([H])c([H])c([H])c1[H]


 58 61  0  0  0  0  0  0  0  0999 V2000
    0.9479  -51.6095  -20.3230 C   0  0  0  0  0  0  0  0  0  0  0  0
    1.3391  -52.7556  -19.9377 O   0  0  0  0  0  0  0  0  0  0  0  0
    0.5569  -51.3679  -21.6315 N   0  0  0  0  0  0  0  0  0  0  0  0
    0.2441  -50.4358  -21.9475 H   0  0  0  0  0  0  0  0  0  0  0  0
    0.5877  -52.4537  -22.5869 C   0  0  0  0  0  0  0  0  0  0  0  0
    0.9922  -51.8184  -23.8929 C   0  0  0  0  0  0  0  0  0  0  0  0
    0.1315  -51.4052  -24.6761 O   0  0  0  0  0  0  0  0  0  0  0  0
    2.3787  -51.7161  -24.1723 N   0  0  0  0  0  0  0  0  0  0  0  0
    3.1498  -52.0468  -23.5658 H   0  0  0  0  0  0  0  0  0  0  0  0
    2.7963  -51.0800  -25.4455 C   0  0  0  0  0  0  0  0  0  0  0  0
    3.0411  -52.1768  -26.3964 C   0  0  0  0  0  0  0  0  0  0  0  0
    3.0623  -51.9182  -27.7487 O   0  0  0  0  0  0  0  0  0  0  0  0
    3.2277  -53.3412  -26.0039 O   0  0  0  0  0  0  0  0  0  0  0  0
    3.6911  -52.4669  -28.3350 H   0  0  0  0  0  0  0  0  0  0  0  0
    4.0659  -50.3708  -25.1164 C   0  0  0  0  0  0  0  0  0  0  0  0
    4.1924  -48.9868  -25.5646 C   0  0  0  0  0  0  0  0  0  0  0  0
    5.3571  -48.2508  -25.3156 C   0  0  0  0  0  0  0  0  0  0  0  0
    5.4867  -46.9605  -25.7610 C   0  0  0  0  0  0  0  0  0  0  0  0
    4.4860  -46.3361  -26.4670 C   0  0  0  0  0  0  0  0  0  0  0  0
    3.3480  -47.0530  -26.7113 C   0  0  0  0  0  0  0  0  0  0  0  0
    3.2038  -48.3499  -26.2702 C   0  0  0  0  0  0  0  0  0  0  0  0
   -0.6919  -53.1943  -22.7264 C   0  0  0  0  0  0  0  0  0  0  0  0
   -0.4442  -54.5817  -23.2322 C   0  0  0  0  0  0  0  0  0  0  0  0
   -1.0809  -54.8156  -24.5905 C   0  0  0  0  0  0  0  0  0  0  0  0
   -0.0889  -55.0478  -25.6166 N   0  0  0  0  0  0  0  0  0  0  0  0
   -0.0730  -54.2724  -26.6586 C   0  0  0  0  0  0  0  0  0  0  0  0
    0.8790  -54.4526  -27.7000 N   0  0  0  0  0  0  0  0  0  0  0  0
   -1.0062  -53.2228  -26.7855 N   0  0  0  0  0  0  0  0  0  0  0  0
    1.7990  -53.9867  -27.6995 H   0  0  0  0  0  0  0  0  0  0  0  0
    0.6039  -55.0882  -28.4804 H   0  0  0  0  0  0  0  0  0  0  0  0
   -1.7524  -53.3058  -27.5180 H   0  0  0  0  0  0  0  0  0  0  0  0
   -0.9690  -52.3788  -26.1734 H   0  0  0  0  0  0  0  0  0  0  0  0
    0.9221  -50.4936  -19.3045 C   0  0  0  0  0  0  0  0  0  0  0  0
    1.8123  -48.5258  -20.5523 C   0  0  0  0  0  0  0  0  0  0  0  0
    0.6685  -48.2873  -20.9758 O   0  0  0  0  0  0  0  0  0  0  0  0
    2.0020  -49.6307  -19.6875 N   0  0  0  0  0  0  0  0  0  0  0  0
    2.9696  -49.8029  -19.3395 H   0  0  0  0  0  0  0  0  0  0  0  0
    2.9191  -47.6294  -20.9907 C   0  0  0  0  0  0  0  0  0  0  0  0
    2.8473  -46.2597  -23.0352 C   0  0  0  0  0  0  0  0  0  0  0  0
    3.0649  -47.6475  -22.4902 C   0  0  0  0  0  0  0  0  0  0  0  0
    4.1278  -48.1111  -20.2378 C   0  0  0  0  0  0  0  0  0  0  0  0
    5.2257  -48.6510  -21.0132 C   0  0  0  0  0  0  0  0  0  0  0  0
    5.1963  -50.0171  -21.3225 C   0  0  0  0  0  0  0  0  0  0  0  0
    6.1879  -50.6003  -22.0794 C   0  0  0  0  0  0  0  0  0  0  0  0
    7.2247  -49.8241  -22.5380 C   0  0  0  0  0  0  0  0  0  0  0  0
    7.2712  -48.4868  -22.2460 C   0  0  0  0  0  0  0  0  0  0  0  0
    6.2712  -47.9269  -21.4896 C   0  0  0  0  0  0  0  0  0  0  0  0
    1.0924  -51.0406  -17.9293 C   0  0  0  0  0  0  0  0  0  0  0  0
   -0.1310  -51.2494  -17.1512 C   0  0  0  0  0  0  0  0  0  0  0  0
   -0.8529  -52.4478  -17.1031 C   0  0  0  0  0  0  0  0  0  0  0  0
   -1.9275  -52.2408  -16.3310 N   0  0  0  0  0  0  0  0  0  0  0  0
   -1.9528  -50.9959  -15.8752 C   0  0  0  0  0  0  0  0  0  0  0  0
   -2.8242  -50.2942  -15.0463 C   0  0  0  0  0  0  0  0  0  0  0  0
   -2.5677  -48.9797  -14.7329 C   0  0  0  0  0  0  0  0  0  0  0  0
   -1.4649  -48.3453  -15.2245 C   0  0  0  0  0  0  0  0  0  0  0  0
   -0.5861  -49.0300  -16.0523 C   0  0  0  0  0  0  0  0  0  0  0  0
   -0.8271  -50.3403  -16.3760 C   0  0  0  0  0  0  0  0  0  0  0  0
   -2.6394  -52.9897  -16.1316 H   0  0  0  0  0  0  0  0  0  0  0  0
 39 40  1  0  0  0
 40 38  1  0  0  0
 38 41  1  0  0  0
 41 42  1  0  0  0
 42 43  2  0  0  0
 43 44  1  0  0  0
 44 45  2  0  0  0
 45 46  1  0  0  0
 46 47  2  0  0  0
 38 34  1  0  0  0
 34 35  2  0  0  0
 34 36  1  0  0  0
 36 33  1  0  0  0
 33 48  1  0  0  0
 48 49  1  0  0  0
 49 50  2  0  0  0
 50 51  1  0  0  0
 51 52  1  0  0  0
 52 53  2  0  0  0
 53 54  1  0  0  0
 54 55  2  0  0  0
 55 56  1  0  0  0
 56 57  2  0  0  0
 33  1  1  0  0  0
  1  2  2  0  0  0
  1  3  1  0  0  0
  3  5  1  0  0  0
  5 22  1  0  0  0
 22 23  1  0  0  0
 23 24  1  0  0  0
 24 25  1  0  0  0
 25 26  2  0  0  0
 26 27  1  0  0  0
 26 28  1  0  0  0
  5  6  1  0  0  0
  6  7  2  0  0  0
  6  8  1  0  0  0
  8 10  1  0  0  0
 10 15  1  0  0  0
 15 16  1  0  0  0
 16 17  2  0  0  0
 17 18  1  0  0  0
 18 19  2  0  0  0
 19 20  1  0  0  0
 20 21  2  0  0  0
 10 11  1  0  0  0
 11 12  1  0  0  0
 11 13  2  0  0  0
 47 42  1  0  0  0
 57 49  1  0  0  0
 21 16  1  0  0  0
 57 52  1  0  0  0
 36 37  1  0  0  0
 51 58  1  0  0  0
  3  4  1  0  0  0
 27 29  1  0  0  0
 27 30  1  0  0  0
 28 31  1  0  0  0
 28 32  1  0  0  0
  8  9  1  0  0  0
 12 14  1  0  0  0
M  END
> <minimizedAffinity>
-7.46234

> <CNNscore>
0.1279373318

> <CNNaffinity>
6.8655776978

> <CNN_VS>
0.8783636689

> <CNNaffinity_variance>
0.9864473343

$$$$
[H]OC(=O)[C@@]([H])(N([H])C(=O)[C@@]([H])(N([H])C(=O)[C@]([H])(N([H])C(=O)[C@@]([H])(C([H])([H])c1c([H])c([H])c([H])c([H])c1[H])C([H])([H])C([H])([H])[H])C([H])([H])c1c([H])n([H])c2c([H])c([H])c([H])c([H])c12)C([H])([H])C([H])([H])C([H])([H])N=C(N([H])[H])N([H])[H])C([H])([H])c1c([H])c([H])c([H])c([H])c1[H]


 58 61  0  0  0  0  0  0  0  0999 V2000
    0.4349  -52.0541  -22.6373 C   0  0  0  0  0  0  0  0  0  0  0  0
   -0.7948  -52.3554  -22.7474 O   0  0  0  0  0  0  0  0  0  0  0  0
    1.0024  -51.7159  -21.4179 N   0  0  0  0  0  0  0  0  0  0  0  0
    2.0002  -51.4654  -21.3278 H   0  0  0  0  0  0  0  0  0  0  0  0
    0.1729  -51.7119  -20.2327 C   0  0  0  0  0  0  0  0  0  0  0  0
    0.7392  -50.6217  -19.3588 C   0  0  0  0  0  0  0  0  0  0  0  0
    0.2423  -50.3911  -18.2521 O   0  0  0  0  0  0  0  0  0  0  0  0
    1.8486  -49.8913  -19.8553 N   0  0  0  0  0  0  0  0  0  0  0  0
    2.3079  -50.0273  -20.7731 H   0  0  0  0  0  0  0  0  0  0  0  0
    2.4291  -48.8250  -19.0032 C   0  0  0  0  0  0  0  0  0  0  0  0
    2.8154  -47.7325  -19.9113 C   0  0  0  0  0  0  0  0  0  0  0  0
    2.1451  -47.5633  -21.1021 O   0  0  0  0  0  0  0  0  0  0  0  0
    3.7421  -46.9547  -19.6271 O   0  0  0  0  0  0  0  0  0  0  0  0
    2.0261  -46.6150  -21.4581 H   0  0  0  0  0  0  0  0  0  0  0  0
    3.6329  -49.4488  -18.3827 C   0  0  0  0  0  0  0  0  0  0  0  0
    3.5797  -49.7195  -16.9488 C   0  0  0  0  0  0  0  0  0  0  0  0
    3.5007  -48.6755  -16.0193 C   0  0  0  0  0  0  0  0  0  0  0  0
    3.4225  -48.9308  -14.6743 C   0  0  0  0  0  0  0  0  0  0  0  0
    3.4182  -50.2142  -14.1819 C   0  0  0  0  0  0  0  0  0  0  0  0
    3.4952  -51.2351  -15.0877 C   0  0  0  0  0  0  0  0  0  0  0  0
    3.5741  -50.9937  -16.4416 C   0  0  0  0  0  0  0  0  0  0  0  0
    0.1215  -53.0064  -19.5067 C   0  0  0  0  0  0  0  0  0  0  0  0
   -1.2797  -53.3134  -19.0775 C   0  0  0  0  0  0  0  0  0  0  0  0
   -1.4601  -53.1733  -17.5766 C   0  0  0  0  0  0  0  0  0  0  0  0
   -2.8301  -52.8723  -17.2254 N   0  0  0  0  0  0  0  0  0  0  0  0
   -3.0685  -52.2558  -16.1072 C   0  0  0  0  0  0  0  0  0  0  0  0
   -4.3954  -51.9334  -15.7088 N   0  0  0  0  0  0  0  0  0  0  0  0
   -2.0096  -51.8864  -15.2523 N   0  0  0  0  0  0  0  0  0  0  0  0
   -4.8513  -51.0435  -15.9610 H   0  0  0  0  0  0  0  0  0  0  0  0
   -4.8995  -52.6481  -15.1398 H   0  0  0  0  0  0  0  0  0  0  0  0
   -1.9084  -52.3908  -14.3382 H   0  0  0  0  0  0  0  0  0  0  0  0
   -1.3351  -51.1328  -15.5086 H   0  0  0  0  0  0  0  0  0  0  0  0
    1.2798  -52.0691  -23.8900 C   0  0  0  0  0  0  0  0  0  0  0  0
    3.7689  -52.0482  -23.7301 C   0  0  0  0  0  0  0  0  0  0  0  0
    3.8067  -53.1513  -24.3013 O   0  0  0  0  0  0  0  0  0  0  0  0
    2.5100  -51.4414  -23.5027 N   0  0  0  0  0  0  0  0  0  0  0  0
    2.5073  -50.5121  -23.0300 H   0  0  0  0  0  0  0  0  0  0  0  0
    5.0612  -51.4341  -23.3133 C   0  0  0  0  0  0  0  0  0  0  0  0
    6.1317  -50.4486  -21.3273 C   0  0  0  0  0  0  0  0  0  0  0  0
    4.8644  -50.5093  -22.1403 C   0  0  0  0  0  0  0  0  0  0  0  0
    5.5908  -50.7694  -24.5533 C   0  0  0  0  0  0  0  0  0  0  0  0
    5.0298  -49.4832  -24.9126 C   0  0  0  0  0  0  0  0  0  0  0  0
    3.9483  -49.4689  -25.8029 C   0  0  0  0  0  0  0  0  0  0  0  0
    3.3413  -48.2891  -26.1717 C   0  0  0  0  0  0  0  0  0  0  0  0
    3.8085  -47.1051  -25.6545 C   0  0  0  0  0  0  0  0  0  0  0  0
    4.8649  -47.0985  -24.7827 C   0  0  0  0  0  0  0  0  0  0  0  0
    5.4545  -48.2872  -24.4292 C   0  0  0  0  0  0  0  0  0  0  0  0
    0.5911  -51.3386  -24.9906 C   0  0  0  0  0  0  0  0  0  0  0  0
    0.6644  -51.9417  -26.3235 C   0  0  0  0  0  0  0  0  0  0  0  0
    1.8511  -52.2897  -26.9792 C   0  0  0  0  0  0  0  0  0  0  0  0
    1.5204  -52.7663  -28.1863 N   0  0  0  0  0  0  0  0  0  0  0  0
    0.2057  -52.7530  -28.3589 C   0  0  0  0  0  0  0  0  0  0  0  0
   -0.6299  -53.1422  -29.4025 C   0  0  0  0  0  0  0  0  0  0  0  0
   -1.9937  -53.0165  -29.2760 C   0  0  0  0  0  0  0  0  0  0  0  0
   -2.5473  -52.5124  -28.1359 C   0  0  0  0  0  0  0  0  0  0  0  0
   -1.7288  -52.1195  -27.0861 C   0  0  0  0  0  0  0  0  0  0  0  0
   -0.3672  -52.2365  -27.1958 C   0  0  0  0  0  0  0  0  0  0  0  0
    2.2348  -53.1002  -28.8831 H   0  0  0  0  0  0  0  0  0  0  0  0
 39 40  1  0  0  0
 40 38  1  0  0  0
 38 41  1  0  0  0
 41 42  1  0  0  0
 42 43  2  0  0  0
 43 44  1  0  0  0
 44 45  2  0  0  0
 45 46  1  0  0  0
 46 47  2  0  0  0
 38 34  1  0  0  0
 34 35  2  0  0  0
 34 36  1  0  0  0
 36 33  1  0  0  0
 33 48  1  0  0  0
 48 49  1  0  0  0
 49 50  2  0  0  0
 50 51  1  0  0  0
 51 52  1  0  0  0
 52 53  2  0  0  0
 53 54  1  0  0  0
 54 55  2  0  0  0
 55 56  1  0  0  0
 56 57  2  0  0  0
 33  1  1  0  0  0
  1  2  2  0  0  0
  1  3  1  0  0  0
  3  5  1  0  0  0
  5 22  1  0  0  0
 22 23  1  0  0  0
 23 24  1  0  0  0
 24 25  1  0  0  0
 25 26  2  0  0  0
 26 27  1  0  0  0
 26 28  1  0  0  0
  5  6  1  0  0  0
  6  7  2  0  0  0
  6  8  1  0  0  0
  8 10  1  0  0  0
 10 15  1  0  0  0
 15 16  1  0  0  0
 16 17  2  0  0  0
 17 18  1  0  0  0
 18 19  2  0  0  0
 19 20  1  0  0  0
 20 21  2  0  0  0
 10 11  1  0  0  0
 11 12  1  0  0  0
 11 13  2  0  0  0
 47 42  1  0  0  0
 57 49  1  0  0  0
 21 16  1  0  0  0
 57 52  1  0  0  0
 36 37  1  0  0  0
 51 58  1  0  0  0
  3  4  1  0  0  0
 27 29  1  0  0  0
 27 30  1  0  0  0
 28 31  1  0  0  0
 28 32  1  0  0  0
  8  9  1  0  0  0
 12 14  1  0  0  0
M  END
> <minimizedAffinity>
-7.24114

> <CNNscore>
0.1201615930

> <CNNaffinity>
6.9285812378

> <CNN_VS>
0.8325493336

> <CNNaffinity_variance>
0.5726744533

$$$$
[H]C#CC([H])([H])N([H])C(=O)[C@@]1([H])N(C(=O)[C@]([H])(N([H])C(=O)c2nc([H])c([H])c([H])c2[H])C([H])([H])N(O[H])C([H])=O)C([H])([H])C([H])([H])C1([H])[H]


 31 32  0  0  0  0  0  0  0  0999 V2000
    1.2206  -52.7087  -23.2270 C   0  0  0  0  0  0  0  0  0  0  0  0
    2.1904  -51.6195  -23.1030 C   0  0  0  0  0  0  0  0  0  0  0  0
    1.7396  -50.5635  -22.4975 O   0  0  0  0  0  0  0  0  0  0  0  0
    3.5131  -51.5820  -23.5477 N   0  0  0  0  0  0  0  0  0  0  0  0
    4.3755  -52.5224  -24.1977 C   0  0  0  0  0  0  0  0  0  0  0  0
    5.8030  -52.0138  -24.1132 C   0  0  0  0  0  0  0  0  0  0  0  0
    5.6662  -50.9914  -22.9904 C   0  0  0  0  0  0  0  0  0  0  0  0
    4.3575  -50.3697  -23.4055 C   0  0  0  0  0  0  0  0  0  0  0  0
    4.5264  -49.7049  -24.7289 C   0  0  0  0  0  0  0  0  0  0  0  0
    3.5838  -49.7887  -25.5519 O   0  0  0  0  0  0  0  0  0  0  0  0
    5.7098  -49.0018  -25.0479 N   0  0  0  0  0  0  0  0  0  0  0  0
    6.5147  -48.9115  -24.3942 H   0  0  0  0  0  0  0  0  0  0  0  0
    5.8554  -48.3501  -26.3527 C   0  0  0  0  0  0  0  0  0  0  0  0
    5.7996  -46.8974  -26.2240 C   0  0  0  0  0  0  0  0  0  0  0  0
    5.7354  -45.6981  -26.1227 C   0  0  0  0  0  0  0  0  0  0  0  0
    1.0025  -53.0168  -24.6520 N   0  0  0  0  0  0  0  0  0  0  0  0
    0.1241  -52.2802  -25.4404 C   0  0  0  0  0  0  0  0  0  0  0  0
   -0.5012  -51.3145  -24.8805 O   0  0  0  0  0  0  0  0  0  0  0  0
    1.5452  -53.8207  -25.0088 H   0  0  0  0  0  0  0  0  0  0  0  0
   -0.1195  -52.5429  -26.8437 C   0  0  0  0  0  0  0  0  0  0  0  0
   -1.3724  -52.4128  -27.3757 C   0  0  0  0  0  0  0  0  0  0  0  0
   -1.6316  -52.6522  -28.7067 C   0  0  0  0  0  0  0  0  0  0  0  0
   -0.5920  -53.0351  -29.5276 C   0  0  0  0  0  0  0  0  0  0  0  0
    0.6647  -53.1621  -28.9790 C   0  0  0  0  0  0  0  0  0  0  0  0
    0.8898  -52.9215  -27.6719 N   0  0  0  0  0  0  0  0  0  0  0  0
   -0.0604  -52.5672  -22.4686 C   0  0  0  0  0  0  0  0  0  0  0  0
    1.0570  -52.7912  -20.2989 O   0  0  0  0  0  0  0  0  0  0  0  0
    0.0620  -53.2011  -21.1383 N   0  0  0  0  0  0  0  0  0  0  0  0
   -0.7959  -54.2244  -20.6893 C   0  0  0  0  0  0  0  0  0  0  0  0
   -1.7328  -54.6367  -21.4142 O   0  0  0  0  0  0  0  0  0  0  0  0
    1.9424  -52.9945  -20.6844 H   0  0  0  0  0  0  0  0  0  0  0  0
 27 28  1  0  0  0
 28 26  1  0  0  0
 26  1  1  0  0  0
  1 16  1  0  0  0
 16 17  1  0  0  0
 17 18  2  0  0  0
 17 20  1  0  0  0
 20 21  2  0  0  0
 21 22  1  0  0  0
 22 23  2  0  0  0
 23 24  1  0  0  0
 24 25  2  0  0  0
  1  2  1  0  0  0
  2  3  2  0  0  0
  2  4  1  0  0  0
  4  5  1  0  0  0
  5  6  1  0  0  0
  6  7  1  0  0  0
  7  8  1  0  0  0
  8  9  1  0  0  0
  9 10  2  0  0  0
  9 11  1  0  0  0
 11 13  1  0  0  0
 13 14  1  0  0  0
 14 15  3  0  0  0
 28 29  1  0  0  0
 29 30  2  0  0  0
 25 20  1  0  0  0
  8  4  1  0  0  0
 27 31  1  0  0  0
 16 19  1  0  0  0
 11 12  1  0  0  0
M  END
> <minimizedAffinity>
-6.31785

> <CNNscore>
0.5193642378

> <CNNaffinity>
6.2951135635

> <CNN_VS>
3.2694568634

> <CNNaffinity_variance>
0.1143772602

$$$$
[H]C#CC([H])([H])N([H])C(=O)[C@@]1([H])N(C(=O)[C@]([H])(N([H])C(=O)c2nc([H])c([H])c([H])c2[H])C([H])([H])N(O[H])C([H])=O)C([H])([H])C([H])([H])C1([H])[H]


 31 32  0  0  0  0  0  0  0  0999 V2000
    0.4245  -52.2235  -22.8255 C   0  0  0  0  0  0  0  0  0  0  0  0
    1.6480  -51.4867  -22.5053 C   0  0  0  0  0  0  0  0  0  0  0  0
    2.0400  -51.6035  -21.2734 O   0  0  0  0  0  0  0  0  0  0  0  0
    2.4265  -50.6917  -23.3482 N   0  0  0  0  0  0  0  0  0  0  0  0
    2.3667  -50.3530  -24.7384 C   0  0  0  0  0  0  0  0  0  0  0  0
    3.6874  -49.7248  -25.1440 C   0  0  0  0  0  0  0  0  0  0  0  0
    4.5758  -50.1804  -23.9917 C   0  0  0  0  0  0  0  0  0  0  0  0
    3.6130  -49.9488  -22.8555 C   0  0  0  0  0  0  0  0  0  0  0  0
    3.3038  -48.4936  -22.7615 C   0  0  0  0  0  0  0  0  0  0  0  0
    2.1398  -48.1614  -22.4336 O   0  0  0  0  0  0  0  0  0  0  0  0
    4.2892  -47.5179  -23.0324 N   0  0  0  0  0  0  0  0  0  0  0  0
    5.2647  -47.7526  -23.3095 H   0  0  0  0  0  0  0  0  0  0  0  0
    3.9676  -46.0917  -22.9297 C   0  0  0  0  0  0  0  0  0  0  0  0
    4.1983  -45.5967  -21.5762 C   0  0  0  0  0  0  0  0  0  0  0  0
    4.3717  -45.1801  -20.4586 C   0  0  0  0  0  0  0  0  0  0  0  0
    0.0799  -52.0176  -24.2439 N   0  0  0  0  0  0  0  0  0  0  0  0
   -0.2583  -53.0752  -25.0823 C   0  0  0  0  0  0  0  0  0  0  0  0
   -0.2569  -54.2507  -24.5772 O   0  0  0  0  0  0  0  0  0  0  0  0
    0.1173  -51.0344  -24.5599 H   0  0  0  0  0  0  0  0  0  0  0  0
   -0.6075  -52.9213  -26.4795 C   0  0  0  0  0  0  0  0  0  0  0  0
    0.3453  -53.0133  -27.4560 C   0  0  0  0  0  0  0  0  0  0  0  0
    0.0409  -52.8752  -28.7918 C   0  0  0  0  0  0  0  0  0  0  0  0
   -1.2681  -52.6367  -29.1537 C   0  0  0  0  0  0  0  0  0  0  0  0
   -2.2175  -52.5467  -28.1603 C   0  0  0  0  0  0  0  0  0  0  0  0
   -1.8911  -52.6858  -26.8599 N   0  0  0  0  0  0  0  0  0  0  0  0
   -0.7461  -52.0240  -21.9165 C   0  0  0  0  0  0  0  0  0  0  0  0
   -0.0234  -52.5885  -19.6437 O   0  0  0  0  0  0  0  0  0  0  0  0
   -0.6763  -52.9681  -20.7805 N   0  0  0  0  0  0  0  0  0  0  0  0
   -1.2444  -54.2569  -20.8123 C   0  0  0  0  0  0  0  0  0  0  0  0
   -1.8628  -54.6578  -21.8272 O   0  0  0  0  0  0  0  0  0  0  0  0
    0.9358  -52.4446  -19.8257 H   0  0  0  0  0  0  0  0  0  0  0  0
 27 28  1  0  0  0
 28 26  1  0  0  0
 26  1  1  0  0  0
  1 16  1  0  0  0
 16 17  1  0  0  0
 17 18  2  0  0  0
 17 20  1  0  0  0
 20 21  2  0  0  0
 21 22  1  0  0  0
 22 23  2  0  0  0
 23 24  1  0  0  0
 24 25  2  0  0  0
  1  2  1  0  0  0
  2  3  2  0  0  0
  2  4  1  0  0  0
  4  5  1  0  0  0
  5  6  1  0  0  0
  6  7  1  0  0  0
  7  8  1  0  0  0
  8  9  1  0  0  0
  9 10  2  0  0  0
  9 11  1  0  0  0
 11 13  1  0  0  0
 13 14  1  0  0  0
 14 15  3  0  0  0
 28 29  1  0  0  0
 29 30  2  0  0  0
 25 20  1  0  0  0
  8  4  1  0  0  0
 27 31  1  0  0  0
 16 19  1  0  0  0
 11 12  1  0  0  0
M  END
> <minimizedAffinity>
-6.60151

> <CNNscore>
0.3569455445

> <CNNaffinity>
5.9106593132

> <CNN_VS>
2.1097834110

> <CNNaffinity_variance>
0.0492724739

$$$$
[H]C#CC([H])([H])N([H])C(=O)[C@@]1([H])N(C(=O)[C@]([H])(N([H])C(=O)c2nc([H])c([H])c([H])c2[H])C([H])([H])N(O[H])C([H])=O)C([H])([H])C([H])([H])C1([H])[H]


 31 32  0  0  0  0  0  0  0  0999 V2000
   -0.0978  -52.1098  -21.2895 C   0  0  0  0  0  0  0  0  0  0  0  0
   -0.0005  -52.9811  -22.4615 C   0  0  0  0  0  0  0  0  0  0  0  0
    0.1656  -54.2385  -22.1853 O   0  0  0  0  0  0  0  0  0  0  0  0
   -0.0643  -52.6291  -23.8108 N   0  0  0  0  0  0  0  0  0  0  0  0
   -0.2766  -51.3994  -24.5134 C   0  0  0  0  0  0  0  0  0  0  0  0
   -0.5787  -51.7147  -25.9669 C   0  0  0  0  0  0  0  0  0  0  0  0
   -0.9535  -53.1886  -25.8581 C   0  0  0  0  0  0  0  0  0  0  0  0
    0.1193  -53.6266  -24.8943 C   0  0  0  0  0  0  0  0  0  0  0  0
    1.4552  -53.4507  -25.5318 C   0  0  0  0  0  0  0  0  0  0  0  0
    1.6409  -53.9713  -26.6574 O   0  0  0  0  0  0  0  0  0  0  0  0
    2.4808  -52.7206  -24.8902 N   0  0  0  0  0  0  0  0  0  0  0  0
    2.3671  -52.2759  -23.9560 H   0  0  0  0  0  0  0  0  0  0  0  0
    3.7863  -52.5541  -25.5352 C   0  0  0  0  0  0  0  0  0  0  0  0
    4.8144  -52.2060  -24.5595 C   0  0  0  0  0  0  0  0  0  0  0  0
    5.6520  -51.9054  -23.7466 C   0  0  0  0  0  0  0  0  0  0  0  0
    0.5755  -50.8285  -21.5684 N   0  0  0  0  0  0  0  0  0  0  0  0
    1.9389  -50.7540  -21.8357 C   0  0  0  0  0  0  0  0  0  0  0  0
    2.6012  -51.8487  -21.8277 O   0  0  0  0  0  0  0  0  0  0  0  0
   -0.0421  -50.0003  -21.5419 H   0  0  0  0  0  0  0  0  0  0  0  0
    2.6425  -49.5201  -22.1189 C   0  0  0  0  0  0  0  0  0  0  0  0
    2.9592  -49.1707  -23.4024 C   0  0  0  0  0  0  0  0  0  0  0  0
    3.6238  -48.0021  -23.7007 C   0  0  0  0  0  0  0  0  0  0  0  0
    3.9800  -47.1587  -22.6697 C   0  0  0  0  0  0  0  0  0  0  0  0
    3.6547  -47.5226  -21.3820 C   0  0  0  0  0  0  0  0  0  0  0  0
    3.0036  -48.6732  -21.1189 N   0  0  0  0  0  0  0  0  0  0  0  0
    0.3049  -52.6942  -19.9733 C   0  0  0  0  0  0  0  0  0  0  0  0
   -1.7248  -54.0633  -19.8621 O   0  0  0  0  0  0  0  0  0  0  0  0
   -0.8868  -53.1803  -19.2451 N   0  0  0  0  0  0  0  0  0  0  0  0
   -1.2137  -52.7683  -17.9382 C   0  0  0  0  0  0  0  0  0  0  0  0
   -0.4770  -51.9641  -17.3185 O   0  0  0  0  0  0  0  0  0  0  0  0
   -2.1456  -53.6486  -20.6525 H   0  0  0  0  0  0  0  0  0  0  0  0
 27 28  1  0  0  0
 28 26  1  0  0  0
 26  1  1  0  0  0
  1 16  1  0  0  0
 16 17  1  0  0  0
 17 18  2  0  0  0
 17 20  1  0  0  0
 20 21  2  0  0  0
 21 22  1  0  0  0
 22 23  2  0  0  0
 23 24  1  0  0  0
 24 25  2  0  0  0
  1  2  1  0  0  0
  2  3  2  0  0  0
  2  4  1  0  0  0
  4  5  1  0  0  0
  5  6  1  0  0  0
  6  7  1  0  0  0
  7  8  1  0  0  0
  8  9  1  0  0  0
  9 10  2  0  0  0
  9 11  1  0  0  0
 11 13  1  0  0  0
 13 14  1  0  0  0
 14 15  3  0  0  0
 28 29  1  0  0  0
 29 30  2  0  0  0
 25 20  1  0  0  0
  8  4  1  0  0  0
 27 31  1  0  0  0
 16 19  1  0  0  0
 11 12  1  0  0  0
M  END
> <minimizedAffinity>
-5.91516

> <CNNscore>
0.3087527454

> <CNNaffinity>
6.0824365616

> <CNN_VS>
1.8779690266

> <CNNaffinity_variance>
0.2783247828

$$$$
[H]C#CC([H])([H])N([H])C(=O)[C@@]1([H])N(C(=O)[C@]([H])(N([H])C(=O)c2nc([H])c([H])c([H])c2[H])C([H])([H])N(O[H])C([H])=O)C([H])([H])C([H])([H])C1([H])[H]


 31 32  0  0  0  0  0  0  0  0999 V2000
    3.8764  -49.9629  -19.9315 C   0  0  0  0  0  0  0  0  0  0  0  0
    4.5200  -49.4568  -21.1447 C   0  0  0  0  0  0  0  0  0  0  0  0
    4.7903  -48.1874  -21.1214 O   0  0  0  0  0  0  0  0  0  0  0  0
    4.8705  -50.1609  -22.2980 N   0  0  0  0  0  0  0  0  0  0  0  0
    4.7887  -51.5349  -22.6931 C   0  0  0  0  0  0  0  0  0  0  0  0
    5.6440  -51.7378  -23.9304 C   0  0  0  0  0  0  0  0  0  0  0  0
    6.5189  -50.4906  -23.8693 C   0  0  0  0  0  0  0  0  0  0  0  0
    5.4619  -49.4887  -23.4817 C   0  0  0  0  0  0  0  0  0  0  0  0
    4.4518  -49.3916  -24.5736 C   0  0  0  0  0  0  0  0  0  0  0  0
    3.2409  -49.3482  -24.2502 O   0  0  0  0  0  0  0  0  0  0  0  0
    4.8440  -49.3492  -25.9304 N   0  0  0  0  0  0  0  0  0  0  0  0
    5.8373  -49.3853  -26.2395 H   0  0  0  0  0  0  0  0  0  0  0  0
    3.8364  -49.2485  -26.9900 C   0  0  0  0  0  0  0  0  0  0  0  0
    3.4733  -47.8571  -27.2400 C   0  0  0  0  0  0  0  0  0  0  0  0
    3.1594  -46.7097  -27.4341 C   0  0  0  0  0  0  0  0  0  0  0  0
    2.5235  -50.4504  -20.2558 N   0  0  0  0  0  0  0  0  0  0  0  0
    2.1820  -51.7960  -20.1633 C   0  0  0  0  0  0  0  0  0  0  0  0
    3.0938  -52.6103  -19.7860 O   0  0  0  0  0  0  0  0  0  0  0  0
    1.8612  -49.7179  -20.5606 H   0  0  0  0  0  0  0  0  0  0  0  0
    0.8665  -52.3204  -20.4672 C   0  0  0  0  0  0  0  0  0  0  0  0
    0.3678  -52.2722  -21.7395 C   0  0  0  0  0  0  0  0  0  0  0  0
   -0.8774  -52.7667  -22.0574 C   0  0  0  0  0  0  0  0  0  0  0  0
   -1.6441  -53.3283  -21.0584 C   0  0  0  0  0  0  0  0  0  0  0  0
   -1.1297  -53.3706  -19.7817 C   0  0  0  0  0  0  0  0  0  0  0  0
    0.0930  -52.8785  -19.4988 N   0  0  0  0  0  0  0  0  0  0  0  0
    3.8917  -49.0706  -18.7317 C   0  0  0  0  0  0  0  0  0  0  0  0
    3.8380  -51.1283  -17.4015 O   0  0  0  0  0  0  0  0  0  0  0  0
    3.4647  -49.8220  -17.5318 N   0  0  0  0  0  0  0  0  0  0  0  0
    2.6755  -49.2594  -16.5095 C   0  0  0  0  0  0  0  0  0  0  0  0
    2.3086  -48.0616  -16.5712 O   0  0  0  0  0  0  0  0  0  0  0  0
    3.4377  -51.6770  -18.1173 H   0  0  0  0  0  0  0  0  0  0  0  0
 27 28  1  0  0  0
 28 26  1  0  0  0
 26  1  1  0  0  0
  1 16  1  0  0  0
 16 17  1  0  0  0
 17 18  2  0  0  0
 17 20  1  0  0  0
 20 21  2  0  0  0
 21 22  1  0  0  0
 22 23  2  0  0  0
 23 24  1  0  0  0
 24 25  2  0  0  0
  1  2  1  0  0  0
  2  3  2  0  0  0
  2  4  1  0  0  0
  4  5  1  0  0  0
  5  6  1  0  0  0
  6  7  1  0  0  0
  7  8  1  0  0  0
  8  9  1  0  0  0
  9 10  2  0  0  0
  9 11  1  0  0  0
 11 13  1  0  0  0
 13 14  1  0  0  0
 14 15  3  0  0  0
 28 29  1  0  0  0
 29 30  2  0  0  0
 25 20  1  0  0  0
  8  4  1  0  0  0
 27 31  1  0  0  0
 16 19  1  0  0  0
 11 12  1  0  0  0
M  END
> <minimizedAffinity>
-5.57822

> <CNNscore>
0.3072226942

> <CNNaffinity>
5.4487519264

> <CNN_VS>
1.6739802361

> <CNNaffinity_variance>
0.0476577878

$$$$
[H]C#CC([H])([H])N([H])C(=O)[C@@]1([H])N(C(=O)[C@]([H])(N([H])C(=O)c2nc([H])c([H])c([H])c2[H])C([H])([H])N(O[H])C([H])=O)C([H])([H])C([H])([H])C1([H])[H]


 31 32  0  0  0  0  0  0  0  0999 V2000
    0.8580  -52.3189  -20.8810 C   0  0  0  0  0  0  0  0  0  0  0  0
    2.0045  -51.7041  -20.2103 C   0  0  0  0  0  0  0  0  0  0  0  0
    2.9319  -52.5397  -19.8545 O   0  0  0  0  0  0  0  0  0  0  0  0
    2.2150  -50.3561  -19.9149 N   0  0  0  0  0  0  0  0  0  0  0  0
    1.4833  -49.1516  -20.1689 C   0  0  0  0  0  0  0  0  0  0  0  0
    2.3911  -47.9647  -19.9030 C   0  0  0  0  0  0  0  0  0  0  0  0
    3.7546  -48.6461  -19.9388 C   0  0  0  0  0  0  0  0  0  0  0  0
    3.4081  -49.8916  -19.1642 C   0  0  0  0  0  0  0  0  0  0  0  0
    3.0244  -49.5156  -17.7738 C   0  0  0  0  0  0  0  0  0  0  0  0
    3.6340  -48.5612  -17.2350 O   0  0  0  0  0  0  0  0  0  0  0  0
    2.0062  -50.2106  -17.0833 N   0  0  0  0  0  0  0  0  0  0  0  0
    1.4791  -51.0085  -17.4942 H   0  0  0  0  0  0  0  0  0  0  0  0
    1.6393  -49.8228  -15.7183 C   0  0  0  0  0  0  0  0  0  0  0  0
    1.5743  -50.9869  -14.8403 C   0  0  0  0  0  0  0  0  0  0  0  0
    1.5024  -51.9449  -14.1124 C   0  0  0  0  0  0  0  0  0  0  0  0
    0.9716  -52.1198  -22.3372 N   0  0  0  0  0  0  0  0  0  0  0  0
    0.3811  -52.9889  -23.2493 C   0  0  0  0  0  0  0  0  0  0  0  0
   -0.2703  -53.9840  -22.7776 O   0  0  0  0  0  0  0  0  0  0  0  0
    1.5259  -51.2944  -22.6191 H   0  0  0  0  0  0  0  0  0  0  0  0
    0.4621  -52.8318  -24.6868 C   0  0  0  0  0  0  0  0  0  0  0  0
   -0.6141  -52.3930  -25.4073 C   0  0  0  0  0  0  0  0  0  0  0  0
   -0.5639  -52.2308  -26.7738 C   0  0  0  0  0  0  0  0  0  0  0  0
    0.6112  -52.5207  -27.4345 C   0  0  0  0  0  0  0  0  0  0  0  0
    1.6872  -52.9614  -26.6968 C   0  0  0  0  0  0  0  0  0  0  0  0
    1.6098  -53.1114  -25.3594 N   0  0  0  0  0  0  0  0  0  0  0  0
   -0.5000  -51.9727  -20.3594 C   0  0  0  0  0  0  0  0  0  0  0  0
   -1.4905  -54.1919  -20.0425 O   0  0  0  0  0  0  0  0  0  0  0  0
   -0.9980  -53.0509  -19.4784 N   0  0  0  0  0  0  0  0  0  0  0  0
   -1.0018  -52.9587  -18.0727 C   0  0  0  0  0  0  0  0  0  0  0  0
   -0.5549  -51.9373  -17.4980 O   0  0  0  0  0  0  0  0  0  0  0  0
   -2.2992  -53.9961  -20.5729 H   0  0  0  0  0  0  0  0  0  0  0  0
 27 28  1  0  0  0
 28 26  1  0  0  0
 26  1  1  0  0  0
  1 16  1  0  0  0
 16 17  1  0  0  0
 17 18  2  0  0  0
 17 20  1  0  0  0
 20 21  2  0  0  0
 21 22  1  0  0  0
 22 23  2  0  0  0
 23 24  1  0  0  0
 24 25  2  0  0  0
  1  2  1  0  0  0
  2  3  2  0  0  0
  2  4  1  0  0  0
  4  5  1  0  0  0
  5  6  1  0  0  0
  6  7  1  0  0  0
  7  8  1  0  0  0
  8  9  1  0  0  0
  9 10  2  0  0  0
  9 11  1  0  0  0
 11 13  1  0  0  0
 13 14  1  0  0  0
 14 15  3  0  0  0
 28 29  1  0  0  0
 29 30  2  0  0  0
 25 20  1  0  0  0
  8  4  1  0  0  0
 27 31  1  0  0  0
 16 19  1  0  0  0
 11 12  1  0  0  0
M  END
> <minimizedAffinity>
-6.02498

> <CNNscore>
0.2267318517

> <CNNaffinity>
5.6190152168

> <CNN_VS>
1.2740097046

> <CNNaffinity_variance>
0.1577763110

$$$$
[H]C#CC([H])([H])N([H])C(=O)[C@@]1([H])N(C(=O)[C@]([H])(N([H])C(=O)c2nc([H])c([H])c([H])c2[H])C([H])([H])N(O[H])C([H])=O)C([H])([H])C([H])([H])C1([H])[H]


 31 32  0  0  0  0  0  0  0  0999 V2000
    0.7178  -52.4193  -21.3860 C   0  0  0  0  0  0  0  0  0  0  0  0
    1.9061  -51.6953  -20.9322 C   0  0  0  0  0  0  0  0  0  0  0  0
    2.6312  -52.3382  -20.0686 O   0  0  0  0  0  0  0  0  0  0  0  0
    2.3432  -50.4244  -21.3095 N   0  0  0  0  0  0  0  0  0  0  0  0
    1.8713  -49.4400  -22.2364 C   0  0  0  0  0  0  0  0  0  0  0  0
    2.9633  -48.4076  -22.4487 C   0  0  0  0  0  0  0  0  0  0  0  0
    4.1736  -49.1740  -21.9268 C   0  0  0  0  0  0  0  0  0  0  0  0
    3.5431  -49.7930  -20.7059 C   0  0  0  0  0  0  0  0  0  0  0  0
    3.1343  -48.7138  -19.7624 C   0  0  0  0  0  0  0  0  0  0  0  0
    2.0605  -48.8619  -19.1318 O   0  0  0  0  0  0  0  0  0  0  0  0
    3.9301  -47.5602  -19.5824 N   0  0  0  0  0  0  0  0  0  0  0  0
    4.8256  -47.3991  -20.0880 H   0  0  0  0  0  0  0  0  0  0  0  0
    3.5142  -46.5120  -18.6461 C   0  0  0  0  0  0  0  0  0  0  0  0
    4.1398  -46.6948  -17.3403 C   0  0  0  0  0  0  0  0  0  0  0  0
    4.6422  -46.8568  -16.2567 C   0  0  0  0  0  0  0  0  0  0  0  0
    0.6486  -52.3833  -22.8580 N   0  0  0  0  0  0  0  0  0  0  0  0
   -0.0245  -53.3570  -23.5893 C   0  0  0  0  0  0  0  0  0  0  0  0
   -0.5869  -54.3014  -22.9346 O   0  0  0  0  0  0  0  0  0  0  0  0
    1.1424  -51.5875  -23.2951 H   0  0  0  0  0  0  0  0  0  0  0  0
   -0.1225  -53.3611  -25.0344 C   0  0  0  0  0  0  0  0  0  0  0  0
   -0.5942  -52.2696  -25.7096 C   0  0  0  0  0  0  0  0  0  0  0  0
   -0.6943  -52.2446  -27.0827 C   0  0  0  0  0  0  0  0  0  0  0  0
   -0.3053  -53.3577  -27.7976 C   0  0  0  0  0  0  0  0  0  0  0  0
    0.1681  -54.4498  -27.1051 C   0  0  0  0  0  0  0  0  0  0  0  0
    0.2551  -54.4468  -25.7599 N   0  0  0  0  0  0  0  0  0  0  0  0
   -0.5833  -52.0605  -20.7422 C   0  0  0  0  0  0  0  0  0  0  0  0
   -1.4779  -54.2578  -20.1277 O   0  0  0  0  0  0  0  0  0  0  0  0
   -0.9432  -53.0692  -19.7226 N   0  0  0  0  0  0  0  0  0  0  0  0
   -0.7723  -52.8634  -18.3395 C   0  0  0  0  0  0  0  0  0  0  0  0
   -0.2789  -51.7937  -17.9088 O   0  0  0  0  0  0  0  0  0  0  0  0
   -2.3510  -54.1149  -20.5649 H   0  0  0  0  0  0  0  0  0  0  0  0
 27 28  1  0  0  0
 28 26  1  0  0  0
 26  1  1  0  0  0
  1 16  1  0  0  0
 16 17  1  0  0  0
 17 18  2  0  0  0
 17 20  1  0  0  0
 20 21  2  0  0  0
 21 22  1  0  0  0
 22 23  2  0  0  0
 23 24  1  0  0  0
 24 25  2  0  0  0
  1  2  1  0  0  0
  2  3  2  0  0  0
  2  4  1  0  0  0
  4  5  1  0  0  0
  5  6  1  0  0  0
  6  7  1  0  0  0
  7  8  1  0  0  0
  8  9  1  0  0  0
  9 10  2  0  0  0
  9 11  1  0  0  0
 11 13  1  0  0  0
 13 14  1  0  0  0
 14 15  3  0  0  0
 28 29  1  0  0  0
 29 30  2  0  0  0
 25 20  1  0  0  0
  8  4  1  0  0  0
 27 31  1  0  0  0
 16 19  1  0  0  0
 11 12  1  0  0  0
M  END
> <minimizedAffinity>
-6.27435

> <CNNscore>
0.2099813521

> <CNNaffinity>
5.7849774361

> <CNN_VS>
1.2147374153

> <CNNaffinity_variance>
0.2352741212

$$$$
[H]C#CC([H])([H])N([H])C(=O)[C@@]1([H])N(C(=O)[C@]([H])(N([H])C(=O)c2nc([H])c([H])c([H])c2[H])C([H])([H])N(O[H])C([H])=O)C([H])([H])C([H])([H])C1([H])[H]


 31 32  0  0  0  0  0  0  0  0999 V2000
    0.2938  -52.5800  -22.8468 C   0  0  0  0  0  0  0  0  0  0  0  0
    1.4963  -51.8836  -22.3872 C   0  0  0  0  0  0  0  0  0  0  0  0
    1.3328  -51.1824  -21.3071 O   0  0  0  0  0  0  0  0  0  0  0  0
    2.7699  -51.8840  -22.9588 N   0  0  0  0  0  0  0  0  0  0  0  0
    3.3581  -52.5409  -24.0871 C   0  0  0  0  0  0  0  0  0  0  0  0
    4.8674  -52.4089  -23.9955 C   0  0  0  0  0  0  0  0  0  0  0  0
    5.0240  -52.0419  -22.5239 C   0  0  0  0  0  0  0  0  0  0  0  0
    3.8802  -51.0673  -22.4084 C   0  0  0  0  0  0  0  0  0  0  0  0
    4.1412  -49.8955  -23.2920 C   0  0  0  0  0  0  0  0  0  0  0  0
    5.3205  -49.4779  -23.3793 O   0  0  0  0  0  0  0  0  0  0  0  0
    3.0947  -49.2737  -24.0095 N   0  0  0  0  0  0  0  0  0  0  0  0
    2.1037  -49.5883  -23.9621 H   0  0  0  0  0  0  0  0  0  0  0  0
    3.3718  -48.1255  -24.8774 C   0  0  0  0  0  0  0  0  0  0  0  0
    3.6446  -48.5543  -26.2456 C   0  0  0  0  0  0  0  0  0  0  0  0
    3.8883  -48.9064  -27.3722 C   0  0  0  0  0  0  0  0  0  0  0  0
    0.0845  -52.3116  -24.2810 N   0  0  0  0  0  0  0  0  0  0  0  0
   -0.3936  -53.2855  -25.1521 C   0  0  0  0  0  0  0  0  0  0  0  0
   -0.6460  -54.4405  -24.6628 O   0  0  0  0  0  0  0  0  0  0  0  0
    0.3267  -51.3530  -24.5817 H   0  0  0  0  0  0  0  0  0  0  0  0
   -0.6186  -53.0673  -26.5661 C   0  0  0  0  0  0  0  0  0  0  0  0
    0.4009  -53.1979  -27.4681 C   0  0  0  0  0  0  0  0  0  0  0  0
    0.2144  -53.0004  -28.8180 C   0  0  0  0  0  0  0  0  0  0  0  0
   -1.0422  -52.6602  -29.2723 C   0  0  0  0  0  0  0  0  0  0  0  0
   -2.0598  -52.5322  -28.3534 C   0  0  0  0  0  0  0  0  0  0  0  0
   -1.8486  -52.7313  -27.0370 N   0  0  0  0  0  0  0  0  0  0  0  0
   -0.9511  -52.3900  -22.0405 C   0  0  0  0  0  0  0  0  0  0  0  0
   -1.7210  -54.7125  -21.8994 O   0  0  0  0  0  0  0  0  0  0  0  0
   -1.2412  -53.6090  -21.2553 N   0  0  0  0  0  0  0  0  0  0  0  0
   -1.0573  -53.6907  -19.8610 C   0  0  0  0  0  0  0  0  0  0  0  0
   -0.6122  -52.7109  -19.2166 O   0  0  0  0  0  0  0  0  0  0  0  0
   -2.6076  -54.5278  -22.2913 H   0  0  0  0  0  0  0  0  0  0  0  0
 27 28  1  0  0  0
 28 26  1  0  0  0
 26  1  1  0  0  0
  1 16  1  0  0  0
 16 17  1  0  0  0
 17 18  2  0  0  0
 17 20  1  0  0  0
 20 21  2  0  0  0
 21 22  1  0  0  0
 22 23  2  0  0  0
 23 24  1  0  0  0
 24 25  2  0  0  0
  1  2  1  0  0  0
  2  3  2  0  0  0
  2  4  1  0  0  0
  4  5  1  0  0  0
  5  6  1  0  0  0
  6  7  1  0  0  0
  7  8  1  0  0  0
  8  9  1  0  0  0
  9 10  2  0  0  0
  9 11  1  0  0  0
 11 13  1  0  0  0
 13 14  1  0  0  0
 14 15  3  0  0  0
 28 29  1  0  0  0
 29 30  2  0  0  0
 25 20  1  0  0  0
  8  4  1  0  0  0
 27 31  1  0  0  0
 16 19  1  0  0  0
 11 12  1  0  0  0
M  END
> <minimizedAffinity>
-7.42648

> <CNNscore>
0.2039768696

> <CNNaffinity>
5.7142062187

> <CNN_VS>
1.1655658484

> <CNNaffinity_variance>
0.5714380741

$$$$
[H]C#CC([H])([H])N([H])C(=O)[C@@]1([H])N(C(=O)[C@]([H])(N([H])C(=O)c2nc([H])c([H])c([H])c2[H])C([H])([H])N(O[H])C([H])=O)C([H])([H])C([H])([H])C1([H])[H]


 31 32  0  0  0  0  0  0  0  0999 V2000
    1.9082  -51.6561  -22.8437 C   0  0  0  0  0  0  0  0  0  0  0  0
    3.1749  -51.1700  -23.3929 C   0  0  0  0  0  0  0  0  0  0  0  0
    3.9833  -52.1045  -23.7905 O   0  0  0  0  0  0  0  0  0  0  0  0
    3.6073  -49.8506  -23.5373 N   0  0  0  0  0  0  0  0  0  0  0  0
    3.0189  -48.5720  -23.2732 C   0  0  0  0  0  0  0  0  0  0  0  0
    3.8504  -47.5024  -23.9574 C   0  0  0  0  0  0  0  0  0  0  0  0
    4.6289  -48.3532  -24.9547 C   0  0  0  0  0  0  0  0  0  0  0  0
    4.9575  -49.5168  -24.0549 C   0  0  0  0  0  0  0  0  0  0  0  0
    5.8311  -49.0469  -22.9422 C   0  0  0  0  0  0  0  0  0  0  0  0
    6.6357  -48.1153  -23.1817 O   0  0  0  0  0  0  0  0  0  0  0  0
    5.7564  -49.6310  -21.6578 N   0  0  0  0  0  0  0  0  0  0  0  0
    5.1045  -50.4068  -21.4198 H   0  0  0  0  0  0  0  0  0  0  0  0
    6.6201  -49.1519  -20.5748 C   0  0  0  0  0  0  0  0  0  0  0  0
    5.8374  -48.5132  -19.5214 C   0  0  0  0  0  0  0  0  0  0  0  0
    5.1875  -47.9714  -18.6631 C   0  0  0  0  0  0  0  0  0  0  0  0
    1.9896  -51.6953  -21.3723 N   0  0  0  0  0  0  0  0  0  0  0  0
    1.2514  -50.8318  -20.5691 C   0  0  0  0  0  0  0  0  0  0  0  0
    0.4910  -49.9868  -21.1563 O   0  0  0  0  0  0  0  0  0  0  0  0
    2.6386  -52.4048  -20.9936 H   0  0  0  0  0  0  0  0  0  0  0  0
    1.2956  -50.8358  -19.1214 C   0  0  0  0  0  0  0  0  0  0  0  0
    2.4852  -50.7359  -18.4546 C   0  0  0  0  0  0  0  0  0  0  0  0
    2.5561  -50.7331  -17.0794 C   0  0  0  0  0  0  0  0  0  0  0  0
    1.3881  -50.8342  -16.3537 C   0  0  0  0  0  0  0  0  0  0  0  0
    0.1971  -50.9339  -17.0378 C   0  0  0  0  0  0  0  0  0  0  0  0
    0.1571  -50.9344  -18.3852 N   0  0  0  0  0  0  0  0  0  0  0  0
    1.3585  -52.9212  -23.4211 C   0  0  0  0  0  0  0  0  0  0  0  0
   -0.8025  -52.3359  -24.4180 O   0  0  0  0  0  0  0  0  0  0  0  0
   -0.1195  -52.9006  -23.3800 N   0  0  0  0  0  0  0  0  0  0  0  0
   -0.8691  -53.4284  -22.3104 C   0  0  0  0  0  0  0  0  0  0  0  0
   -0.2963  -53.9662  -21.3327 O   0  0  0  0  0  0  0  0  0  0  0  0
   -0.6042  -51.3712  -24.4804 H   0  0  0  0  0  0  0  0  0  0  0  0
 27 28  1  0  0  0
 28 26  1  0  0  0
 26  1  1  0  0  0
  1 16  1  0  0  0
 16 17  1  0  0  0
 17 18  2  0  0  0
 17 20  1  0  0  0
 20 21  2  0  0  0
 21 22  1  0  0  0
 22 23  2  0  0  0
 23 24  1  0  0  0
 24 25  2  0  0  0
  1  2  1  0  0  0
  2  3  2  0  0  0
  2  4  1  0  0  0
  4  5  1  0  0  0
  5  6  1  0  0  0
  6  7  1  0  0  0
  7  8  1  0  0  0
  8  9  1  0  0  0
  9 10  2  0  0  0
  9 11  1  0  0  0
 11 13  1  0  0  0
 13 14  1  0  0  0
 14 15  3  0  0  0
 28 29  1  0  0  0
 29 30  2  0  0  0
 25 20  1  0  0  0
  8  4  1  0  0  0
 27 31  1  0  0  0
 16 19  1  0  0  0
 11 12  1  0  0  0
M  END
> <minimizedAffinity>
-4.68324

> <CNNscore>
0.1755838990

> <CNNaffinity>
5.1949391365

> <CNN_VS>
0.9121476412

> <CNNaffinity_variance>
0.3567134738

$$$$
[H]C#CC([H])([H])N([H])C(=O)[C@@]1([H])N(C(=O)[C@]([H])(N([H])C(=O)c2nc([H])c([H])c([H])c2[H])C([H])([H])N(O[H])C([H])=O)C([H])([H])C([H])([H])C1([H])[H]


 31 32  0  0  0  0  0  0  0  0999 V2000
    3.9422  -49.7345  -20.3365 C   0  0  0  0  0  0  0  0  0  0  0  0
    4.6555  -49.1405  -21.4681 C   0  0  0  0  0  0  0  0  0  0  0  0
    5.7902  -48.5903  -21.1605 O   0  0  0  0  0  0  0  0  0  0  0  0
    4.2699  -49.0967  -22.8090 N   0  0  0  0  0  0  0  0  0  0  0  0
    3.1524  -49.6079  -23.5443 C   0  0  0  0  0  0  0  0  0  0  0  0
    3.4681  -49.5305  -25.0268 C   0  0  0  0  0  0  0  0  0  0  0  0
    4.9840  -49.3737  -24.9789 C   0  0  0  0  0  0  0  0  0  0  0  0
    5.0764  -48.3937  -23.8377 C   0  0  0  0  0  0  0  0  0  0  0  0
    4.4097  -47.1190  -24.2284 C   0  0  0  0  0  0  0  0  0  0  0  0
    3.8268  -46.4634  -23.3323 O   0  0  0  0  0  0  0  0  0  0  0  0
    4.4329  -46.6619  -25.5652 N   0  0  0  0  0  0  0  0  0  0  0  0
    4.9033  -47.1776  -26.3374 H   0  0  0  0  0  0  0  0  0  0  0  0
    3.7760  -45.4033  -25.9293 C   0  0  0  0  0  0  0  0  0  0  0  0
    2.7108  -45.6280  -26.9014 C   0  0  0  0  0  0  0  0  0  0  0  0
    1.8440  -45.8192  -27.7167 C   0  0  0  0  0  0  0  0  0  0  0  0
    2.6991  -50.3677  -20.8126 N   0  0  0  0  0  0  0  0  0  0  0  0
    2.3296  -51.6519  -20.4251 C   0  0  0  0  0  0  0  0  0  0  0  0
    3.1166  -52.2775  -19.6336 O   0  0  0  0  0  0  0  0  0  0  0  0
    2.1364  -49.7867  -21.4559 H   0  0  0  0  0  0  0  0  0  0  0  0
    1.1176  -52.3128  -20.8632 C   0  0  0  0  0  0  0  0  0  0  0  0
    0.5131  -53.2601  -20.0842 C   0  0  0  0  0  0  0  0  0  0  0  0
   -0.6416  -53.9011  -20.4739 C   0  0  0  0  0  0  0  0  0  0  0  0
   -1.2045  -53.5751  -21.6897 C   0  0  0  0  0  0  0  0  0  0  0  0
   -0.5856  -52.6193  -22.4641 C   0  0  0  0  0  0  0  0  0  0  0  0
    0.5448  -52.0076  -22.0576 N   0  0  0  0  0  0  0  0  0  0  0  0
    3.7206  -48.8641  -19.1408 C   0  0  0  0  0  0  0  0  0  0  0  0
    1.6724  -47.8174  -19.9868 O   0  0  0  0  0  0  0  0  0  0  0  0
    2.9459  -47.6633  -19.5208 N   0  0  0  0  0  0  0  0  0  0  0  0
    3.4606  -46.3546  -19.4372 C   0  0  0  0  0  0  0  0  0  0  0  0
    4.6220  -46.1508  -19.0095 O   0  0  0  0  0  0  0  0  0  0  0  0
    1.6720  -48.3166  -20.8380 H   0  0  0  0  0  0  0  0  0  0  0  0
 27 28  1  0  0  0
 28 26  1  0  0  0
 26  1  1  0  0  0
  1 16  1  0  0  0
 16 17  1  0  0  0
 17 18  2  0  0  0
 17 20  1  0  0  0
 20 21  2  0  0  0
 21 22  1  0  0  0
 22 23  2  0  0  0
 23 24  1  0  0  0
 24 25  2  0  0  0
  1  2  1  0  0  0
  2  3  2  0  0  0
  2  4  1  0  0  0
  4  5  1  0  0  0
  5  6  1  0  0  0
  6  7  1  0  0  0
  7  8  1  0  0  0
  8  9  1  0  0  0
  9 10  2  0  0  0
  9 11  1  0  0  0
 11 13  1  0  0  0
 13 14  1  0  0  0
 14 15  3  0  0  0
 28 29  1  0  0  0
 29 30  2  0  0  0
 25 20  1  0  0  0
  8  4  1  0  0  0
 27 31  1  0  0  0
 16 19  1  0  0  0
 11 12  1  0  0  0
M  END
> <minimizedAffinity>
-5.29372

> <CNNscore>
0.1686540246

> <CNNaffinity>
5.1364789009

> <CNN_VS>
0.8662878275

> <CNNaffinity_variance>
0.1325630248

$$$$
[H]N=C(c1c([H])c([H])c2c([H])c(S(=O)(=O)N([H])[C@]([H])(C(=O)N3C(=O)C([H])([H])C([H])([H])C3([H])[H])C([H])([H])c3c([H])c([H])c([H])c([H])c3[H])c([H])c([H])c2c1[H])N([H])[H]


 37 40  0  0  0  0  0  0  0  0999 V2000
   -0.4319  -53.0008  -21.5988 S   0  0  0  0  0  0  0  0  0  0  0  0
    0.7739  -53.9322  -21.7367 O   0  0  0  0  0  0  0  0  0  0  0  0
   -1.6978  -53.9276  -21.6895 O   0  0  0  0  0  0  0  0  0  0  0  0
   -0.4637  -52.4969  -19.9519 C   0  0  0  0  0  0  0  0  0  0  0  0
   -1.3877  -53.2226  -19.1619 C   0  0  0  0  0  0  0  0  0  0  0  0
   -1.5195  -53.0130  -17.8111 C   0  0  0  0  0  0  0  0  0  0  0  0
   -0.7192  -52.0657  -17.1913 C   0  0  0  0  0  0  0  0  0  0  0  0
    0.1871  -51.3487  -17.9332 C   0  0  0  0  0  0  0  0  0  0  0  0
    0.9968  -50.4418  -17.2671 C   0  0  0  0  0  0  0  0  0  0  0  0
    0.8822  -50.2794  -15.8840 C   0  0  0  0  0  0  0  0  0  0  0  0
   -0.0177  -50.9869  -15.1321 C   0  0  0  0  0  0  0  0  0  0  0  0
   -0.8108  -51.8777  -15.8189 C   0  0  0  0  0  0  0  0  0  0  0  0
    0.2971  -51.5756  -19.3096 C   0  0  0  0  0  0  0  0  0  0  0  0
   -0.1430  -50.8701  -13.6855 C   0  0  0  0  0  0  0  0  0  0  0  0
    0.4671  -49.9626  -13.0070 N   0  0  0  0  0  0  0  0  0  0  0  0
   -0.9163  -51.7989  -12.9213 N   0  0  0  0  0  0  0  0  0  0  0  0
    0.4064  -49.8425  -12.0021 H   0  0  0  0  0  0  0  0  0  0  0  0
   -0.4540  -52.5610  -12.3668 H   0  0  0  0  0  0  0  0  0  0  0  0
   -1.9460  -51.7171  -12.9105 H   0  0  0  0  0  0  0  0  0  0  0  0
   -0.4479  -51.9101  -22.8703 N   0  0  0  0  0  0  0  0  0  0  0  0
    0.0227  -51.0028  -22.6885 H   0  0  0  0  0  0  0  0  0  0  0  0
    0.2212  -52.5492  -24.0869 C   0  0  0  0  0  0  0  0  0  0  0  0
    1.6812  -52.3262  -24.0648 C   0  0  0  0  0  0  0  0  0  0  0  0
    2.4281  -53.2739  -24.4973 O   0  0  0  0  0  0  0  0  0  0  0  0
    2.4149  -51.1984  -23.6692 N   0  0  0  0  0  0  0  0  0  0  0  0
    3.8904  -51.1308  -23.9017 C   0  0  0  0  0  0  0  0  0  0  0  0
    4.3196  -49.7235  -23.6569 C   0  0  0  0  0  0  0  0  0  0  0  0
    3.0297  -48.9479  -23.5810 C   0  0  0  0  0  0  0  0  0  0  0  0
    2.1079  -50.0131  -23.0232 C   0  0  0  0  0  0  0  0  0  0  0  0
    1.2710  -49.7808  -22.1423 O   0  0  0  0  0  0  0  0  0  0  0  0
   -0.3977  -51.7428  -25.2185 C   0  0  0  0  0  0  0  0  0  0  0  0
   -0.9086  -52.9911  -29.2702 C   0  0  0  0  0  0  0  0  0  0  0  0
   -1.9634  -52.6456  -28.4274 C   0  0  0  0  0  0  0  0  0  0  0  0
   -1.7406  -52.2703  -27.1347 C   0  0  0  0  0  0  0  0  0  0  0  0
   -0.4144  -52.2194  -26.5631 C   0  0  0  0  0  0  0  0  0  0  0  0
    0.5437  -52.5612  -27.4284 C   0  0  0  0  0  0  0  0  0  0  0  0
    0.3602  -52.9443  -28.7601 C   0  0  0  0  0  0  0  0  0  0  0  0
 32 33  2  0  0  0
 33 34  1  0  0  0
 34 35  2  0  0  0
 35 31  1  0  0  0
 31 22  1  0  0  0
 22 23  1  0  0  0
 23 24  2  0  0  0
 23 25  1  0  0  0
 25 26  1  0  0  0
 26 27  1  0  0  0
 27 28  1  0  0  0
 28 29  1  0  0  0
 29 30  2  0  0  0
 22 20  1  0  0  0
 20  1  1  0  0  0
  1  2  2  0  0  0
  1  4  1  0  0  0
  4  5  2  0  0  0
  5  6  1  0  0  0
  6  7  2  0  0  0
  7  8  1  0  0  0
  8  9  1  0  0  0
  9 10  2  0  0  0
 10 11  1  0  0  0
 11 14  1  0  0  0
 14 15  2  0  0  0
 14 16  1  0  0  0
 11 12  2  0  0  0
  8 13  2  0  0  0
  1  3  2  0  0  0
 35 36  1  0  0  0
 36 37  2  0  0  0
 37 32  1  0  0  0
 29 25  1  0  0  0
 13  4  1  0  0  0
 12  7  1  0  0  0
 20 21  1  0  0  0
 15 17  1  0  0  0
 16 18  1  0  0  0
 16 19  1  0  0  0
M  END
> <minimizedAffinity>
-7.98400

> <CNNscore>
0.5039678216

> <CNNaffinity>
6.8024740219

> <CNN_VS>
3.4282279015

> <CNNaffinity_variance>
0.2147595435

$$$$
[H]N=C(c1c([H])c([H])c2c([H])c(S(=O)(=O)N([H])[C@]([H])(C(=O)N3C(=O)C([H])([H])C([H])([H])C3([H])[H])C([H])([H])c3c([H])c([H])c([H])c([H])c3[H])c([H])c([H])c2c1[H])N([H])[H]


 37 40  0  0  0  0  0  0  0  0999 V2000
    0.2362  -52.2225  -21.7359 S   0  0  0  0  0  0  0  0  0  0  0  0
    0.6024  -53.7078  -21.7226 O   0  0  0  0  0  0  0  0  0  0  0  0
   -1.2853  -52.1631  -22.1248 O   0  0  0  0  0  0  0  0  0  0  0  0
    0.2136  -51.7186  -20.0889 C   0  0  0  0  0  0  0  0  0  0  0  0
    0.8234  -50.4578  -19.8805 C   0  0  0  0  0  0  0  0  0  0  0  0
    0.8534  -49.8538  -18.6476 C   0  0  0  0  0  0  0  0  0  0  0  0
    0.2626  -50.4901  -17.5669 C   0  0  0  0  0  0  0  0  0  0  0  0
   -0.3377  -51.7130  -17.7410 C   0  0  0  0  0  0  0  0  0  0  0  0
   -0.9533  -52.2948  -16.6434 C   0  0  0  0  0  0  0  0  0  0  0  0
   -0.9556  -51.6405  -15.4088 C   0  0  0  0  0  0  0  0  0  0  0  0
   -0.3600  -50.4216  -15.2208 C   0  0  0  0  0  0  0  0  0  0  0  0
    0.2460  -49.8684  -16.3257 C   0  0  0  0  0  0  0  0  0  0  0  0
   -0.3485  -52.3112  -19.0059 C   0  0  0  0  0  0  0  0  0  0  0  0
   -0.3710  -49.6937  -13.9591 C   0  0  0  0  0  0  0  0  0  0  0  0
   -0.8406  -48.5005  -13.8502 N   0  0  0  0  0  0  0  0  0  0  0  0
    0.1936  -50.2473  -12.7677 N   0  0  0  0  0  0  0  0  0  0  0  0
   -0.8714  -47.9589  -12.9937 H   0  0  0  0  0  0  0  0  0  0  0  0
    1.1340  -49.9369  -12.4194 H   0  0  0  0  0  0  0  0  0  0  0  0
   -0.3331  -50.9610  -12.2383 H   0  0  0  0  0  0  0  0  0  0  0  0
    1.1407  -51.4310  -22.9031 N   0  0  0  0  0  0  0  0  0  0  0  0
    2.1139  -51.1935  -22.6311 H   0  0  0  0  0  0  0  0  0  0  0  0
    1.2041  -52.2978  -24.1605 C   0  0  0  0  0  0  0  0  0  0  0  0
    2.5997  -52.6577  -24.4842 C   0  0  0  0  0  0  0  0  0  0  0  0
    2.7860  -53.4911  -25.4401 O   0  0  0  0  0  0  0  0  0  0  0  0
    3.8016  -52.1987  -23.9261 N   0  0  0  0  0  0  0  0  0  0  0  0
    5.1147  -52.5708  -24.5367 C   0  0  0  0  0  0  0  0  0  0  0  0
    6.1596  -51.7056  -23.9168 C   0  0  0  0  0  0  0  0  0  0  0  0
    5.3789  -50.6475  -23.1802 C   0  0  0  0  0  0  0  0  0  0  0  0
    4.1337  -51.4328  -22.8218 C   0  0  0  0  0  0  0  0  0  0  0  0
    3.5866  -51.3530  -21.7152 O   0  0  0  0  0  0  0  0  0  0  0  0
    0.6736  -51.3316  -25.2089 C   0  0  0  0  0  0  0  0  0  0  0  0
   -1.8826  -52.7278  -28.3317 C   0  0  0  0  0  0  0  0  0  0  0  0
   -0.4946  -52.6614  -28.4385 C   0  0  0  0  0  0  0  0  0  0  0  0
    0.2708  -52.1894  -27.4124 C   0  0  0  0  0  0  0  0  0  0  0  0
   -0.3040  -51.7243  -26.1708 C   0  0  0  0  0  0  0  0  0  0  0  0
   -1.6358  -51.8197  -26.1407 C   0  0  0  0  0  0  0  0  0  0  0  0
   -2.4560  -52.3026  -27.1643 C   0  0  0  0  0  0  0  0  0  0  0  0
 32 33  2  0  0  0
 33 34  1  0  0  0
 34 35  2  0  0  0
 35 31  1  0  0  0
 31 22  1  0  0  0
 22 23  1  0  0  0
 23 24  2  0  0  0
 23 25  1  0  0  0
 25 26  1  0  0  0
 26 27  1  0  0  0
 27 28  1  0  0  0
 28 29  1  0  0  0
 29 30  2  0  0  0
 22 20  1  0  0  0
 20  1  1  0  0  0
  1  2  2  0  0  0
  1  4  1  0  0  0
  4  5  2  0  0  0
  5  6  1  0  0  0
  6  7  2  0  0  0
  7  8  1  0  0  0
  8  9  1  0  0  0
  9 10  2  0  0  0
 10 11  1  0  0  0
 11 14  1  0  0  0
 14 15  2  0  0  0
 14 16  1  0  0  0
 11 12  2  0  0  0
  8 13  2  0  0  0
  1  3  2  0  0  0
 35 36  1  0  0  0
 36 37  2  0  0  0
 37 32  1  0  0  0
 29 25  1  0  0  0
 13  4  1  0  0  0
 12  7  1  0  0  0
 20 21  1  0  0  0
 15 17  1  0  0  0
 16 18  1  0  0  0
 16 19  1  0  0  0
M  END
> <minimizedAffinity>
-8.48537

> <CNNscore>
0.4118279517

> <CNNaffinity>
6.5058240891

> <CNN_VS>
2.6792802811

> <CNNaffinity_variance>
0.1433367729

$$$$
[H]N=C(c1c([H])c([H])c2c([H])c(S(=O)(=O)N([H])[C@]([H])(C(=O)N3C(=O)C([H])([H])C([H])([H])C3([H])[H])C([H])([H])c3c([H])c([H])c([H])c([H])c3[H])c([H])c([H])c2c1[H])N([H])[H]


 37 40  0  0  0  0  0  0  0  0999 V2000
   -0.6424  -53.2188  -20.8105 S   0  0  0  0  0  0  0  0  0  0  0  0
    0.5335  -54.1647  -21.0618 O   0  0  0  0  0  0  0  0  0  0  0  0
   -1.8696  -54.1439  -20.4823 O   0  0  0  0  0  0  0  0  0  0  0  0
   -0.3358  -52.4641  -19.2927 C   0  0  0  0  0  0  0  0  0  0  0  0
    0.7025  -51.5030  -19.3448 C   0  0  0  0  0  0  0  0  0  0  0  0
    1.0572  -50.7483  -18.2536 C   0  0  0  0  0  0  0  0  0  0  0  0
    0.3755  -50.9224  -17.0591 C   0  0  0  0  0  0  0  0  0  0  0  0
   -0.6375  -51.8465  -16.9810 C   0  0  0  0  0  0  0  0  0  0  0  0
   -1.3210  -51.9587  -15.7801 C   0  0  0  0  0  0  0  0  0  0  0  0
   -0.9782  -51.1460  -14.6964 C   0  0  0  0  0  0  0  0  0  0  0  0
    0.0301  -50.2213  -14.7600 C   0  0  0  0  0  0  0  0  0  0  0  0
    0.6939  -50.1330  -15.9624 C   0  0  0  0  0  0  0  0  0  0  0  0
   -0.9750  -52.6085  -18.1050 C   0  0  0  0  0  0  0  0  0  0  0  0
    0.3938  -49.3335  -13.6639 C   0  0  0  0  0  0  0  0  0  0  0  0
    1.3378  -49.6072  -12.8331 N   0  0  0  0  0  0  0  0  0  0  0  0
   -0.3189  -48.1197  -13.4124 N   0  0  0  0  0  0  0  0  0  0  0  0
    1.6263  -49.0186  -12.0597 H   0  0  0  0  0  0  0  0  0  0  0  0
   -1.0205  -48.0553  -12.6342 H   0  0  0  0  0  0  0  0  0  0  0  0
   -0.1386  -47.2914  -14.0026 H   0  0  0  0  0  0  0  0  0  0  0  0
   -0.9634  -52.3397  -22.2000 N   0  0  0  0  0  0  0  0  0  0  0  0
   -1.0249  -51.3110  -22.0753 H   0  0  0  0  0  0  0  0  0  0  0  0
    0.1262  -52.6219  -23.2341 C   0  0  0  0  0  0  0  0  0  0  0  0
    1.2038  -51.6147  -23.1543 C   0  0  0  0  0  0  0  0  0  0  0  0
    0.9047  -50.4707  -22.6594 O   0  0  0  0  0  0  0  0  0  0  0  0
    2.5572  -51.7126  -23.5086 N   0  0  0  0  0  0  0  0  0  0  0  0
    3.5130  -50.6131  -23.1720 C   0  0  0  0  0  0  0  0  0  0  0  0
    4.8926  -51.1318  -23.4006 C   0  0  0  0  0  0  0  0  0  0  0  0
    4.7084  -52.6172  -23.5767 C   0  0  0  0  0  0  0  0  0  0  0  0
    3.3221  -52.6455  -24.1875 C   0  0  0  0  0  0  0  0  0  0  0  0
    3.0194  -53.3896  -25.1283 O   0  0  0  0  0  0  0  0  0  0  0  0
   -0.6463  -52.4360  -24.5313 C   0  0  0  0  0  0  0  0  0  0  0  0
    0.7801  -54.0076  -28.2368 C   0  0  0  0  0  0  0  0  0  0  0  0
    0.3241  -54.7991  -27.1842 C   0  0  0  0  0  0  0  0  0  0  0  0
   -0.1042  -54.2410  -26.0152 C   0  0  0  0  0  0  0  0  0  0  0  0
   -0.1012  -52.8128  -25.7947 C   0  0  0  0  0  0  0  0  0  0  0  0
    0.3462  -52.1204  -26.8454 C   0  0  0  0  0  0  0  0  0  0  0  0
    0.7869  -52.6507  -28.0613 C   0  0  0  0  0  0  0  0  0  0  0  0
 32 33  2  0  0  0
 33 34  1  0  0  0
 34 35  2  0  0  0
 35 31  1  0  0  0
 31 22  1  0  0  0
 22 23  1  0  0  0
 23 24  2  0  0  0
 23 25  1  0  0  0
 25 26  1  0  0  0
 26 27  1  0  0  0
 27 28  1  0  0  0
 28 29  1  0  0  0
 29 30  2  0  0  0
 22 20  1  0  0  0
 20  1  1  0  0  0
  1  2  2  0  0  0
  1  4  1  0  0  0
  4  5  2  0  0  0
  5  6  1  0  0  0
  6  7  2  0  0  0
  7  8  1  0  0  0
  8  9  1  0  0  0
  9 10  2  0  0  0
 10 11  1  0  0  0
 11 14  1  0  0  0
 14 15  2  0  0  0
 14 16  1  0  0  0
 11 12  2  0  0  0
  8 13  2  0  0  0
  1  3  2  0  0  0
 35 36  1  0  0  0
 36 37  2  0  0  0
 37 32  1  0  0  0
 29 25  1  0  0  0
 13  4  1  0  0  0
 12  7  1  0  0  0
 20 21  1  0  0  0
 15 17  1  0  0  0
 16 18  1  0  0  0
 16 19  1  0  0  0
M  END
> <minimizedAffinity>
-8.14755

> <CNNscore>
0.3452982306

> <CNNaffinity>
6.6046791077

> <CNN_VS>
2.2805840969

> <CNNaffinity_variance>
0.2432543039

$$$$
[H]N=C(c1c([H])c([H])c2c([H])c(S(=O)(=O)N([H])[C@]([H])(C(=O)N3C(=O)C([H])([H])C([H])([H])C3([H])[H])C([H])([H])c3c([H])c([H])c([H])c([H])c3[H])c([H])c([H])c2c1[H])N([H])[H]


 37 40  0  0  0  0  0  0  0  0999 V2000
    2.8159  -51.5299  -24.9307 S   0  0  0  0  0  0  0  0  0  0  0  0
    3.2040  -50.4093  -25.8972 O   0  0  0  0  0  0  0  0  0  0  0  0
    3.9989  -52.5631  -24.9804 O   0  0  0  0  0  0  0  0  0  0  0  0
    2.9699  -50.8722  -23.3461 C   0  0  0  0  0  0  0  0  0  0  0  0
    3.7472  -51.6772  -22.4787 C   0  0  0  0  0  0  0  0  0  0  0  0
    4.0380  -51.2974  -21.1914 C   0  0  0  0  0  0  0  0  0  0  0  0
    3.5642  -50.0826  -20.7202 C   0  0  0  0  0  0  0  0  0  0  0  0
    2.8094  -49.2809  -21.5409 C   0  0  0  0  0  0  0  0  0  0  0  0
    2.3914  -48.0560  -21.0441 C   0  0  0  0  0  0  0  0  0  0  0  0
    2.7405  -47.6656  -19.7488 C   0  0  0  0  0  0  0  0  0  0  0  0
    3.4916  -48.4553  -18.9194 C   0  0  0  0  0  0  0  0  0  0  0  0
    3.8904  -49.6669  -19.4365 C   0  0  0  0  0  0  0  0  0  0  0  0
    2.5205  -49.6940  -22.8462 C   0  0  0  0  0  0  0  0  0  0  0  0
    3.9038  -48.0689  -17.5767 C   0  0  0  0  0  0  0  0  0  0  0  0
    4.2526  -46.8670  -17.2767 N   0  0  0  0  0  0  0  0  0  0  0  0
    3.9972  -49.0231  -16.5159 N   0  0  0  0  0  0  0  0  0  0  0  0
    4.5426  -46.5535  -16.3573 H   0  0  0  0  0  0  0  0  0  0  0  0
    4.9272  -49.3982  -16.2055 H   0  0  0  0  0  0  0  0  0  0  0  0
    3.1369  -49.3461  -16.0440 H   0  0  0  0  0  0  0  0  0  0  0  0
    1.4090  -52.2682  -25.4619 N   0  0  0  0  0  0  0  0  0  0  0  0
    1.4418  -53.3040  -25.5229 H   0  0  0  0  0  0  0  0  0  0  0  0
    0.2610  -51.8903  -24.5262 C   0  0  0  0  0  0  0  0  0  0  0  0
   -0.0517  -52.9974  -23.5997 C   0  0  0  0  0  0  0  0  0  0  0  0
   -0.3866  -54.1213  -24.1173 O   0  0  0  0  0  0  0  0  0  0  0  0
   -0.0089  -53.0397  -22.1986 N   0  0  0  0  0  0  0  0  0  0  0  0
   -0.1967  -54.3321  -21.4705 C   0  0  0  0  0  0  0  0  0  0  0  0
    0.1957  -54.1079  -20.0491 C   0  0  0  0  0  0  0  0  0  0  0  0
    0.8861  -52.7683  -20.0595 C   0  0  0  0  0  0  0  0  0  0  0  0
    0.1492  -52.0949  -21.1993 C   0  0  0  0  0  0  0  0  0  0  0  0
   -0.2187  -50.9146  -21.1548 O   0  0  0  0  0  0  0  0  0  0  0  0
   -0.8806  -51.7209  -25.5173 C   0  0  0  0  0  0  0  0  0  0  0  0
   -1.1009  -53.0381  -29.5734 C   0  0  0  0  0  0  0  0  0  0  0  0
   -2.2176  -52.7489  -28.7913 C   0  0  0  0  0  0  0  0  0  0  0  0
   -2.0863  -52.3481  -27.4937 C   0  0  0  0  0  0  0  0  0  0  0  0
   -0.7976  -52.2109  -26.8545 C   0  0  0  0  0  0  0  0  0  0  0  0
    0.2236  -52.5024  -27.6643 C   0  0  0  0  0  0  0  0  0  0  0  0
    0.1341  -52.9091  -28.9986 C   0  0  0  0  0  0  0  0  0  0  0  0
 32 33  2  0  0  0
 33 34  1  0  0  0
 34 35  2  0  0  0
 35 31  1  0  0  0
 31 22  1  0  0  0
 22 23  1  0  0  0
 23 24  2  0  0  0
 23 25  1  0  0  0
 25 26  1  0  0  0
 26 27  1  0  0  0
 27 28  1  0  0  0
 28 29  1  0  0  0
 29 30  2  0  0  0
 22 20  1  0  0  0
 20  1  1  0  0  0
  1  2  2  0  0  0
  1  4  1  0  0  0
  4  5  2  0  0  0
  5  6  1  0  0  0
  6  7  2  0  0  0
  7  8  1  0  0  0
  8  9  1  0  0  0
  9 10  2  0  0  0
 10 11  1  0  0  0
 11 14  1  0  0  0
 14 15  2  0  0  0
 14 16  1  0  0  0
 11 12  2  0  0  0
  8 13  2  0  0  0
  1  3  2  0  0  0
 35 36  1  0  0  0
 36 37  2  0  0  0
 37 32  1  0  0  0
 29 25  1  0  0  0
 13  4  1  0  0  0
 12  7  1  0  0  0
 20 21  1  0  0  0
 15 17  1  0  0  0
 16 18  1  0  0  0
 16 19  1  0  0  0
M  END
> <minimizedAffinity>
-8.24908

> <CNNscore>
0.3428814411

> <CNNaffinity>
6.6011261940

> <CNN_VS>
2.2634036541

> <CNNaffinity_variance>
0.0633644313

$$$$
[H]N=C(c1c([H])c([H])c2c([H])c(S(=O)(=O)N([H])[C@]([H])(C(=O)N3C(=O)C([H])([H])C([H])([H])C3([H])[H])C([H])([H])c3c([H])c([H])c([H])c([H])c3[H])c([H])c([H])c2c1[H])N([H])[H]


 37 40  0  0  0  0  0  0  0  0999 V2000
    0.1230  -53.0666  -22.8416 S   0  0  0  0  0  0  0  0  0  0  0  0
   -0.8095  -54.2490  -22.5718 O   0  0  0  0  0  0  0  0  0  0  0  0
   -0.7126  -52.0548  -23.7062 O   0  0  0  0  0  0  0  0  0  0  0  0
    0.2802  -52.2278  -21.3454 C   0  0  0  0  0  0  0  0  0  0  0  0
    0.7362  -50.8958  -21.4953 C   0  0  0  0  0  0  0  0  0  0  0  0
    0.8688  -50.0426  -20.4274 C   0  0  0  0  0  0  0  0  0  0  0  0
    0.5401  -50.4909  -19.1573 C   0  0  0  0  0  0  0  0  0  0  0  0
    0.0934  -51.7777  -18.9833 C   0  0  0  0  0  0  0  0  0  0  0  0
   -0.2643  -52.1720  -17.7032 C   0  0  0  0  0  0  0  0  0  0  0  0
   -0.1700  -51.2730  -16.6377 C   0  0  0  0  0  0  0  0  0  0  0  0
    0.2747  -49.9874  -16.7967 C   0  0  0  0  0  0  0  0  0  0  0  0
    0.6259  -49.6236  -18.0767 C   0  0  0  0  0  0  0  0  0  0  0  0
   -0.0259  -52.6301  -20.0866 C   0  0  0  0  0  0  0  0  0  0  0  0
    0.3546  -49.0120  -15.7177 C   0  0  0  0  0  0  0  0  0  0  0  0
   -0.0365  -49.2695  -14.5190 N   0  0  0  0  0  0  0  0  0  0  0  0
    0.8270  -47.6811  -15.9419 N   0  0  0  0  0  0  0  0  0  0  0  0
    0.0035  -48.6238  -13.7384 H   0  0  0  0  0  0  0  0  0  0  0  0
    0.1590  -46.8746  -16.0144 H   0  0  0  0  0  0  0  0  0  0  0  0
    1.8417  -47.5088  -16.0299 H   0  0  0  0  0  0  0  0  0  0  0  0
    1.4505  -53.5871  -23.7212 N   0  0  0  0  0  0  0  0  0  0  0  0
    1.2689  -54.3572  -24.3932 H   0  0  0  0  0  0  0  0  0  0  0  0
    2.0256  -52.4076  -24.5050 C   0  0  0  0  0  0  0  0  0  0  0  0
    2.0467  -52.6958  -25.9536 C   0  0  0  0  0  0  0  0  0  0  0  0
    3.1384  -53.1514  -26.4473 O   0  0  0  0  0  0  0  0  0  0  0  0
    1.0267  -52.5849  -26.9097 N   0  0  0  0  0  0  0  0  0  0  0  0
    1.2247  -53.1059  -28.2970 C   0  0  0  0  0  0  0  0  0  0  0  0
   -0.1076  -53.1154  -28.9676 C   0  0  0  0  0  0  0  0  0  0  0  0
   -1.0899  -52.8815  -27.8489 C   0  0  0  0  0  0  0  0  0  0  0  0
   -0.2435  -52.0346  -26.9205 C   0  0  0  0  0  0  0  0  0  0  0  0
   -0.6853  -51.0412  -26.3303 O   0  0  0  0  0  0  0  0  0  0  0  0
    3.4509  -52.3711  -23.9746 C   0  0  0  0  0  0  0  0  0  0  0  0
    4.4148  -49.3347  -21.1308 C   0  0  0  0  0  0  0  0  0  0  0  0
    4.0200  -49.0713  -22.4412 C   0  0  0  0  0  0  0  0  0  0  0  0
    3.7410  -50.0841  -23.3118 C   0  0  0  0  0  0  0  0  0  0  0  0
    3.8470  -51.4757  -22.9370 C   0  0  0  0  0  0  0  0  0  0  0  0
    4.2278  -51.6502  -21.6689 C   0  0  0  0  0  0  0  0  0  0  0  0
    4.5161  -50.6431  -20.7435 C   0  0  0  0  0  0  0  0  0  0  0  0
 32 33  2  0  0  0
 33 34  1  0  0  0
 34 35  2  0  0  0
 35 31  1  0  0  0
 31 22  1  0  0  0
 22 23  1  0  0  0
 23 24  2  0  0  0
 23 25  1  0  0  0
 25 26  1  0  0  0
 26 27  1  0  0  0
 27 28  1  0  0  0
 28 29  1  0  0  0
 29 30  2  0  0  0
 22 20  1  0  0  0
 20  1  1  0  0  0
  1  2  2  0  0  0
  1  4  1  0  0  0
  4  5  2  0  0  0
  5  6  1  0  0  0
  6  7  2  0  0  0
  7  8  1  0  0  0
  8  9  1  0  0  0
  9 10  2  0  0  0
 10 11  1  0  0  0
 11 14  1  0  0  0
 14 15  2  0  0  0
 14 16  1  0  0  0
 11 12  2  0  0  0
  8 13  2  0  0  0
  1  3  2  0  0  0
 35 36  1  0  0  0
 36 37  2  0  0  0
 37 32  1  0  0  0
 29 25  1  0  0  0
 13  4  1  0  0  0
 12  7  1  0  0  0
 20 21  1  0  0  0
 15 17  1  0  0  0
 16 18  1  0  0  0
 16 19  1  0  0  0
M  END
> <minimizedAffinity>
-7.74997

> <CNNscore>
0.3270001411

> <CNNaffinity>
6.6152725220

> <CNN_VS>
2.1631951332

> <CNNaffinity_variance>
0.1078339666

$$$$
[H]N=C(c1c([H])c([H])c2c([H])c(S(=O)(=O)N([H])[C@]([H])(C(=O)N3C(=O)C([H])([H])C([H])([H])C3([H])[H])C([H])([H])c3c([H])c([H])c([H])c([H])c3[H])c([H])c([H])c2c1[H])N([H])[H]


 37 40  0  0  0  0  0  0  0  0999 V2000
   -0.3927  -53.0788  -21.5950 S   0  0  0  0  0  0  0  0  0  0  0  0
   -0.8522  -54.5065  -21.2937 O   0  0  0  0  0  0  0  0  0  0  0  0
   -1.6372  -52.3557  -22.2258 O   0  0  0  0  0  0  0  0  0  0  0  0
   -0.2442  -52.2903  -20.0707 C   0  0  0  0  0  0  0  0  0  0  0  0
   -0.8208  -53.0208  -19.0037 C   0  0  0  0  0  0  0  0  0  0  0  0
   -0.7535  -52.5908  -17.7012 C   0  0  0  0  0  0  0  0  0  0  0  0
   -0.0941  -51.4061  -17.4122 C   0  0  0  0  0  0  0  0  0  0  0  0
    0.4761  -50.6783  -18.4277 C   0  0  0  0  0  0  0  0  0  0  0  0
    1.1620  -49.5218  -18.0901 C   0  0  0  0  0  0  0  0  0  0  0  0
    1.2624  -49.1279  -16.7533 C   0  0  0  0  0  0  0  0  0  0  0  0
    0.6979  -49.8433  -15.7309 C   0  0  0  0  0  0  0  0  0  0  0  0
    0.0205  -50.9849  -16.0944 C   0  0  0  0  0  0  0  0  0  0  0  0
    0.3873  -51.1340  -19.7477 C   0  0  0  0  0  0  0  0  0  0  0  0
    0.8098  -49.4834  -14.3238 C   0  0  0  0  0  0  0  0  0  0  0  0
    1.3773  -50.2452  -13.4556 N   0  0  0  0  0  0  0  0  0  0  0  0
    0.2428  -48.2754  -13.8102 N   0  0  0  0  0  0  0  0  0  0  0  0
    1.4803  -50.0340  -12.4693 H   0  0  0  0  0  0  0  0  0  0  0  0
   -0.6573  -48.2867  -13.2701 H   0  0  0  0  0  0  0  0  0  0  0  0
    0.7278  -47.3773  -13.9689 H   0  0  0  0  0  0  0  0  0  0  0  0
    0.8560  -53.1140  -22.7114 N   0  0  0  0  0  0  0  0  0  0  0  0
    0.7627  -53.8209  -23.4659 H   0  0  0  0  0  0  0  0  0  0  0  0
    0.9784  -51.7399  -23.3695 C   0  0  0  0  0  0  0  0  0  0  0  0
    0.9762  -51.8572  -24.8419 C   0  0  0  0  0  0  0  0  0  0  0  0
    1.5171  -50.9056  -25.5090 O   0  0  0  0  0  0  0  0  0  0  0  0
    0.4964  -52.8876  -25.6634 N   0  0  0  0  0  0  0  0  0  0  0  0
    0.7627  -52.8740  -27.1346 C   0  0  0  0  0  0  0  0  0  0  0  0
    0.3981  -54.2177  -27.6695 C   0  0  0  0  0  0  0  0  0  0  0  0
    0.2131  -55.0707  -26.4408 C   0  0  0  0  0  0  0  0  0  0  0  0
   -0.2671  -54.0237  -25.4565 C   0  0  0  0  0  0  0  0  0  0  0  0
   -1.1891  -54.2281  -24.6575 O   0  0  0  0  0  0  0  0  0  0  0  0
    2.3594  -51.3113  -22.8971 C   0  0  0  0  0  0  0  0  0  0  0  0
    3.4111  -47.9206  -20.5237 C   0  0  0  0  0  0  0  0  0  0  0  0
    4.0715  -49.1463  -20.4590 C   0  0  0  0  0  0  0  0  0  0  0  0
    3.6794  -50.2013  -21.2301 C   0  0  0  0  0  0  0  0  0  0  0  0
    2.5618  -50.1177  -22.1424 C   0  0  0  0  0  0  0  0  0  0  0  0
    1.9807  -48.9153  -22.1518 C   0  0  0  0  0  0  0  0  0  0  0  0
    2.3539  -47.8079  -21.3849 C   0  0  0  0  0  0  0  0  0  0  0  0
 32 33  2  0  0  0
 33 34  1  0  0  0
 34 35  2  0  0  0
 35 31  1  0  0  0
 31 22  1  0  0  0
 22 23  1  0  0  0
 23 24  2  0  0  0
 23 25  1  0  0  0
 25 26  1  0  0  0
 26 27  1  0  0  0
 27 28  1  0  0  0
 28 29  1  0  0  0
 29 30  2  0  0  0
 22 20  1  0  0  0
 20  1  1  0  0  0
  1  2  2  0  0  0
  1  4  1  0  0  0
  4  5  2  0  0  0
  5  6  1  0  0  0
  6  7  2  0  0  0
  7  8  1  0  0  0
  8  9  1  0  0  0
  9 10  2  0  0  0
 10 11  1  0  0  0
 11 14  1  0  0  0
 14 15  2  0  0  0
 14 16  1  0  0  0
 11 12  2  0  0  0
  8 13  2  0  0  0
  1  3  2  0  0  0
 35 36  1  0  0  0
 36 37  2  0  0  0
 37 32  1  0  0  0
 29 25  1  0  0  0
 13  4  1  0  0  0
 12  7  1  0  0  0
 20 21  1  0  0  0
 15 17  1  0  0  0
 16 18  1  0  0  0
 16 19  1  0  0  0
M  END
> <minimizedAffinity>
-7.57574

> <CNNscore>
0.3048515916

> <CNNaffinity>
6.5010938644

> <CNN_VS>
1.9818688631

> <CNNaffinity_variance>
0.0901520103

$$$$
[H]N=C(c1c([H])c([H])c2c([H])c(S(=O)(=O)N([H])[C@]([H])(C(=O)N3C(=O)C([H])([H])C([H])([H])C3([H])[H])C([H])([H])c3c([H])c([H])c([H])c([H])c3[H])c([H])c([H])c2c1[H])N([H])[H]


 37 40  0  0  0  0  0  0  0  0999 V2000
   -0.3310  -53.0645  -20.2757 S   0  0  0  0  0  0  0  0  0  0  0  0
   -1.7250  -53.6166  -19.9717 O   0  0  0  0  0  0  0  0  0  0  0  0
    0.6766  -54.1855  -19.8310 O   0  0  0  0  0  0  0  0  0  0  0  0
   -0.1695  -53.0854  -21.9905 C   0  0  0  0  0  0  0  0  0  0  0  0
   -0.7561  -54.2238  -22.5944 C   0  0  0  0  0  0  0  0  0  0  0  0
   -0.7867  -54.3963  -23.9565 C   0  0  0  0  0  0  0  0  0  0  0  0
   -0.2334  -53.4237  -24.7750 C   0  0  0  0  0  0  0  0  0  0  0  0
    0.3404  -52.3083  -24.2160 C   0  0  0  0  0  0  0  0  0  0  0  0
    0.8442  -51.3408  -25.0716 C   0  0  0  0  0  0  0  0  0  0  0  0
    0.7580  -51.5115  -26.4557 C   0  0  0  0  0  0  0  0  0  0  0  0
    0.1895  -52.6190  -27.0267 C   0  0  0  0  0  0  0  0  0  0  0  0
   -0.2995  -53.5647  -26.1545 C   0  0  0  0  0  0  0  0  0  0  0  0
    0.3658  -52.1595  -22.8248 C   0  0  0  0  0  0  0  0  0  0  0  0
    0.0508  -52.8168  -28.4632 C   0  0  0  0  0  0  0  0  0  0  0  0
   -1.0401  -52.5623  -29.0967 N   0  0  0  0  0  0  0  0  0  0  0  0
    1.1119  -53.3610  -29.2523 N   0  0  0  0  0  0  0  0  0  0  0  0
   -1.1799  -52.6815  -30.0937 H   0  0  0  0  0  0  0  0  0  0  0  0
    1.0927  -54.3617  -29.5687 H   0  0  0  0  0  0  0  0  0  0  0  0
    1.9083  -52.7597  -29.5192 H   0  0  0  0  0  0  0  0  0  0  0  0
   -0.0633  -51.6827  -19.3669 N   0  0  0  0  0  0  0  0  0  0  0  0
   -0.1542  -51.7976  -18.3392 H   0  0  0  0  0  0  0  0  0  0  0  0
    1.3425  -51.1572  -19.6569 C   0  0  0  0  0  0  0  0  0  0  0  0
    2.1381  -51.0642  -18.4159 C   0  0  0  0  0  0  0  0  0  0  0  0
    3.3305  -51.5338  -18.4445 O   0  0  0  0  0  0  0  0  0  0  0  0
    1.8111  -50.4967  -17.1758 N   0  0  0  0  0  0  0  0  0  0  0  0
    2.8467  -50.3568  -16.1065 C   0  0  0  0  0  0  0  0  0  0  0  0
    2.2843  -49.4663  -15.0503 C   0  0  0  0  0  0  0  0  0  0  0  0
    1.0510  -48.8725  -15.6809 C   0  0  0  0  0  0  0  0  0  0  0  0
    0.6500  -50.0043  -16.6050 C   0  0  0  0  0  0  0  0  0  0  0  0
   -0.5240  -50.3651  -16.7523 O   0  0  0  0  0  0  0  0  0  0  0  0
    1.0323  -49.7577  -20.1662 C   0  0  0  0  0  0  0  0  0  0  0  0
    3.4721  -48.3584  -23.3795 C   0  0  0  0  0  0  0  0  0  0  0  0
    3.5147  -49.6607  -22.8850 C   0  0  0  0  0  0  0  0  0  0  0  0
    2.7228  -50.0468  -21.8432 C   0  0  0  0  0  0  0  0  0  0  0  0
    1.8101  -49.1375  -21.1887 C   0  0  0  0  0  0  0  0  0  0  0  0
    1.8225  -47.9108  -21.7167 C   0  0  0  0  0  0  0  0  0  0  0  0
    2.6111  -47.4761  -22.7858 C   0  0  0  0  0  0  0  0  0  0  0  0
 32 33  2  0  0  0
 33 34  1  0  0  0
 34 35  2  0  0  0
 35 31  1  0  0  0
 31 22  1  0  0  0
 22 23  1  0  0  0
 23 24  2  0  0  0
 23 25  1  0  0  0
 25 26  1  0  0  0
 26 27  1  0  0  0
 27 28  1  0  0  0
 28 29  1  0  0  0
 29 30  2  0  0  0
 22 20  1  0  0  0
 20  1  1  0  0  0
  1  2  2  0  0  0
  1  4  1  0  0  0
  4  5  2  0  0  0
  5  6  1  0  0  0
  6  7  2  0  0  0
  7  8  1  0  0  0
  8  9  1  0  0  0
  9 10  2  0  0  0
 10 11  1  0  0  0
 11 14  1  0  0  0
 14 15  2  0  0  0
 14 16  1  0  0  0
 11 12  2  0  0  0
  8 13  2  0  0  0
  1  3  2  0  0  0
 35 36  1  0  0  0
 36 37  2  0  0  0
 37 32  1  0  0  0
 29 25  1  0  0  0
 13  4  1  0  0  0
 12  7  1  0  0  0
 20 21  1  0  0  0
 15 17  1  0  0  0
 16 18  1  0  0  0
 16 19  1  0  0  0
M  END
> <minimizedAffinity>
-8.68361

> <CNNscore>
0.2438053787

> <CNNaffinity>
6.5700263977

> <CNN_VS>
1.6018078327

> <CNNaffinity_variance>
0.1288156658

$$$$
[H]N=C(c1c([H])c([H])c2c([H])c(S(=O)(=O)N([H])[C@]([H])(C(=O)N3C(=O)C([H])([H])C([H])([H])C3([H])[H])C([H])([H])c3c([H])c([H])c([H])c([H])c3[H])c([H])c([H])c2c1[H])N([H])[H]


 37 40  0  0  0  0  0  0  0  0999 V2000
    0.4377  -52.6698  -20.2457 S   0  0  0  0  0  0  0  0  0  0  0  0
   -1.0614  -52.5908  -19.9506 O   0  0  0  0  0  0  0  0  0  0  0  0
    0.8679  -54.1345  -19.8728 O   0  0  0  0  0  0  0  0  0  0  0  0
    0.5901  -52.6684  -21.9615 C   0  0  0  0  0  0  0  0  0  0  0  0
    1.9320  -52.5802  -22.4045 C   0  0  0  0  0  0  0  0  0  0  0  0
    2.2683  -52.6255  -23.7352 C   0  0  0  0  0  0  0  0  0  0  0  0
    1.2665  -52.7696  -24.6826 C   0  0  0  0  0  0  0  0  0  0  0  0
   -0.0436  -52.8595  -24.2807 C   0  0  0  0  0  0  0  0  0  0  0  0
   -1.0097  -53.0452  -25.2575 C   0  0  0  0  0  0  0  0  0  0  0  0
   -0.6421  -53.1394  -26.6022 C   0  0  0  0  0  0  0  0  0  0  0  0
    0.6601  -53.0505  -27.0171 C   0  0  0  0  0  0  0  0  0  0  0  0
    1.5981  -52.8631  -26.0274 C   0  0  0  0  0  0  0  0  0  0  0  0
   -0.3612  -52.8032  -22.9191 C   0  0  0  0  0  0  0  0  0  0  0  0
    1.0853  -53.1778  -28.4045 C   0  0  0  0  0  0  0  0  0  0  0  0
    0.4223  -52.6689  -29.3831 N   0  0  0  0  0  0  0  0  0  0  0  0
    2.2468  -53.9284  -28.7682 N   0  0  0  0  0  0  0  0  0  0  0  0
    0.6821  -52.7299  -30.3611 H   0  0  0  0  0  0  0  0  0  0  0  0
    2.1626  -54.8912  -29.1778 H   0  0  0  0  0  0  0  0  0  0  0  0
    3.1837  -53.5160  -28.6300 H   0  0  0  0  0  0  0  0  0  0  0  0
    1.2602  -51.5827  -19.2719 N   0  0  0  0  0  0  0  0  0  0  0  0
    2.2932  -51.5812  -19.3751 H   0  0  0  0  0  0  0  0  0  0  0  0
    0.7584  -50.1689  -19.5647 C   0  0  0  0  0  0  0  0  0  0  0  0
    1.6444  -49.4824  -20.5267 C   0  0  0  0  0  0  0  0  0  0  0  0
    1.1041  -48.6382  -21.3258 O   0  0  0  0  0  0  0  0  0  0  0  0
    3.0333  -49.5746  -20.6974 N   0  0  0  0  0  0  0  0  0  0  0  0
    3.7492  -48.6451  -21.6243 C   0  0  0  0  0  0  0  0  0  0  0  0
    5.2108  -48.7889  -21.3642 C   0  0  0  0  0  0  0  0  0  0  0  0
    5.2857  -49.5794  -20.0832 C   0  0  0  0  0  0  0  0  0  0  0  0
    4.0228  -50.4077  -20.2043 C   0  0  0  0  0  0  0  0  0  0  0  0
    3.9773  -51.6076  -19.9064 O   0  0  0  0  0  0  0  0  0  0  0  0
    0.8969  -49.5200  -18.1958 C   0  0  0  0  0  0  0  0  0  0  0  0
    2.6961  -51.5603  -14.9040 C   0  0  0  0  0  0  0  0  0  0  0  0
    1.3227  -51.3632  -15.0359 C   0  0  0  0  0  0  0  0  0  0  0  0
    0.8055  -50.6875  -16.1024 C   0  0  0  0  0  0  0  0  0  0  0  0
    1.6403  -50.1315  -17.1428 C   0  0  0  0  0  0  0  0  0  0  0  0
    2.9417  -50.3610  -16.9503 C   0  0  0  0  0  0  0  0  0  0  0  0
    3.5122  -51.0528  -15.8780 C   0  0  0  0  0  0  0  0  0  0  0  0
 32 33  2  0  0  0
 33 34  1  0  0  0
 34 35  2  0  0  0
 35 31  1  0  0  0
 31 22  1  0  0  0
 22 23  1  0  0  0
 23 24  2  0  0  0
 23 25  1  0  0  0
 25 26  1  0  0  0
 26 27  1  0  0  0
 27 28  1  0  0  0
 28 29  1  0  0  0
 29 30  2  0  0  0
 22 20  1  0  0  0
 20  1  1  0  0  0
  1  2  2  0  0  0
  1  4  1  0  0  0
  4  5  2  0  0  0
  5  6  1  0  0  0
  6  7  2  0  0  0
  7  8  1  0  0  0
  8  9  1  0  0  0
  9 10  2  0  0  0
 10 11  1  0  0  0
 11 14  1  0  0  0
 14 15  2  0  0  0
 14 16  1  0  0  0
 11 12  2  0  0  0
  8 13  2  0  0  0
  1  3  2  0  0  0
 35 36  1  0  0  0
 36 37  2  0  0  0
 37 32  1  0  0  0
 29 25  1  0  0  0
 13  4  1  0  0  0
 12  7  1  0  0  0
 20 21  1  0  0  0
 15 17  1  0  0  0
 16 18  1  0  0  0
 16 19  1  0  0  0
M  END
> <minimizedAffinity>
-7.81196

> <CNNscore>
0.2149694711

> <CNNaffinity>
6.5540833473

> <CNN_VS>
1.4089277983

> <CNNaffinity_variance>
0.1845463812

$$$$
[H]N=C(c1c([H])c([H])c2c([H])c(S(=O)(=O)N([H])[C@]([H])(C(=O)N3C(=O)C([H])([H])C([H])([H])C3([H])[H])C([H])([H])c3c([H])c([H])c([H])c([H])c3[H])c([H])c([H])c2c1[H])N([H])[H]


 37 40  0  0  0  0  0  0  0  0999 V2000
   -0.0905  -52.5790  -20.3157 S   0  0  0  0  0  0  0  0  0  0  0  0
   -1.2779  -53.4802  -19.9716 O   0  0  0  0  0  0  0  0  0  0  0  0
    1.1855  -53.3469  -19.8139 O   0  0  0  0  0  0  0  0  0  0  0  0
    0.0873  -52.6516  -22.0275 C   0  0  0  0  0  0  0  0  0  0  0  0
    0.8336  -51.5722  -22.5593 C   0  0  0  0  0  0  0  0  0  0  0  0
    1.1378  -51.4802  -23.8953 C   0  0  0  0  0  0  0  0  0  0  0  0
    0.7097  -52.4777  -24.7578 C   0  0  0  0  0  0  0  0  0  0  0  0
   -0.0142  -53.5372  -24.2685 C   0  0  0  0  0  0  0  0  0  0  0  0
   -0.3862  -54.5336  -25.1578 C   0  0  0  0  0  0  0  0  0  0  0  0
   -0.0233  -54.4466  -26.5043 C   0  0  0  0  0  0  0  0  0  0  0  0
    0.6974  -53.3955  -27.0059 C   0  0  0  0  0  0  0  0  0  0  0  0
    1.0507  -52.4193  -26.1022 C   0  0  0  0  0  0  0  0  0  0  0  0
   -0.3178  -53.6041  -22.9042 C   0  0  0  0  0  0  0  0  0  0  0  0
    1.1232  -53.2865  -28.3947 C   0  0  0  0  0  0  0  0  0  0  0  0
    0.3982  -52.7310  -29.3013 N   0  0  0  0  0  0  0  0  0  0  0  0
    2.3602  -53.8432  -28.8469 N   0  0  0  0  0  0  0  0  0  0  0  0
    0.6553  -52.6305  -30.2768 H   0  0  0  0  0  0  0  0  0  0  0  0
    2.3839  -54.7460  -29.3821 H   0  0  0  0  0  0  0  0  0  0  0  0
    3.2446  -53.3481  -28.6479 H   0  0  0  0  0  0  0  0  0  0  0  0
   -0.2281  -51.1281  -19.4895 N   0  0  0  0  0  0  0  0  0  0  0  0
   -1.0028  -51.0765  -18.8004 H   0  0  0  0  0  0  0  0  0  0  0  0
    1.0784  -50.8485  -18.7472 C   0  0  0  0  0  0  0  0  0  0  0  0
    0.8687  -50.8620  -17.2851 C   0  0  0  0  0  0  0  0  0  0  0  0
   -0.3412  -50.9112  -16.8644 O   0  0  0  0  0  0  0  0  0  0  0  0
    1.8041  -50.8657  -16.2403 N   0  0  0  0  0  0  0  0  0  0  0  0
    1.3631  -51.0624  -14.8252 C   0  0  0  0  0  0  0  0  0  0  0  0
    2.5833  -51.3146  -14.0054 C   0  0  0  0  0  0  0  0  0  0  0  0
    3.6713  -51.5552  -15.0201 C   0  0  0  0  0  0  0  0  0  0  0  0
    3.1744  -50.6869  -16.1581 C   0  0  0  0  0  0  0  0  0  0  0  0
    3.9249  -49.9695  -16.8307 O   0  0  0  0  0  0  0  0  0  0  0  0
    1.3761  -49.4283  -19.2036 C   0  0  0  0  0  0  0  0  0  0  0  0
    3.4189  -48.2135  -22.7514 C   0  0  0  0  0  0  0  0  0  0  0  0
    2.1710  -47.7238  -22.3701 C   0  0  0  0  0  0  0  0  0  0  0  0
    1.5578  -48.1623  -21.2329 C   0  0  0  0  0  0  0  0  0  0  0  0
    2.1518  -49.1576  -20.3699 C   0  0  0  0  0  0  0  0  0  0  0  0
    3.3453  -49.5779  -20.7972 C   0  0  0  0  0  0  0  0  0  0  0  0
    4.0110  -49.1510  -21.9497 C   0  0  0  0  0  0  0  0  0  0  0  0
 32 33  2  0  0  0
 33 34  1  0  0  0
 34 35  2  0  0  0
 35 31  1  0  0  0
 31 22  1  0  0  0
 22 23  1  0  0  0
 23 24  2  0  0  0
 23 25  1  0  0  0
 25 26  1  0  0  0
 26 27  1  0  0  0
 27 28  1  0  0  0
 28 29  1  0  0  0
 29 30  2  0  0  0
 22 20  1  0  0  0
 20  1  1  0  0  0
  1  2  2  0  0  0
  1  4  1  0  0  0
  4  5  2  0  0  0
  5  6  1  0  0  0
  6  7  2  0  0  0
  7  8  1  0  0  0
  8  9  1  0  0  0
  9 10  2  0  0  0
 10 11  1  0  0  0
 11 14  1  0  0  0
 14 15  2  0  0  0
 14 16  1  0  0  0
 11 12  2  0  0  0
  8 13  2  0  0  0
  1  3  2  0  0  0
 35 36  1  0  0  0
 36 37  2  0  0  0
 37 32  1  0  0  0
 29 25  1  0  0  0
 13  4  1  0  0  0
 12  7  1  0  0  0
 20 21  1  0  0  0
 15 17  1  0  0  0
 16 18  1  0  0  0
 16 19  1  0  0  0
M  END
> <minimizedAffinity>
-8.31705

> <CNNscore>
0.1819005609

> <CNNaffinity>
6.4867720604

> <CNN_VS>
1.1799474955

> <CNNaffinity_variance>
0.1253270060

$$$$
[H]OC(=O)c1c(-c2c([H])c([H])c(F)c(C#N)c2[H])nc(-c2c([H])c([H])c(OC([H])([H])[H])c([H])c2[H])n1[H]


 27 29  0  0  0  0  0  0  0  0999 V2000
    0.4087  -51.9277  -22.0079 C   0  0  0  0  0  0  0  0  0  0  0  0
    0.4365  -51.7125  -23.3191 N   0  0  0  0  0  0  0  0  0  0  0  0
   -0.1564  -52.7613  -23.9967 C   0  0  0  0  0  0  0  0  0  0  0  0
   -0.5580  -53.6431  -23.0289 C   0  0  0  0  0  0  0  0  0  0  0  0
   -0.1911  -53.0934  -21.8300 N   0  0  0  0  0  0  0  0  0  0  0  0
   -0.3591  -53.5280  -20.9163 H   0  0  0  0  0  0  0  0  0  0  0  0
   -0.3007  -52.8135  -25.4436 C   0  0  0  0  0  0  0  0  0  0  0  0
   -1.3850  -52.2593  -26.0571 C   0  0  0  0  0  0  0  0  0  0  0  0
   -1.4986  -52.3007  -27.4485 C   0  0  0  0  0  0  0  0  0  0  0  0
   -0.5222  -52.8995  -28.2176 C   0  0  0  0  0  0  0  0  0  0  0  0
   -0.5985  -52.9593  -29.5793 F   0  0  0  0  0  0  0  0  0  0  0  0
    0.5841  -53.4665  -27.6016 C   0  0  0  0  0  0  0  0  0  0  0  0
    0.6778  -53.4141  -26.2162 C   0  0  0  0  0  0  0  0  0  0  0  0
    1.5959  -54.0886  -28.4146 C   0  0  0  0  0  0  0  0  0  0  0  0
    2.4068  -54.6032  -29.0604 N   0  0  0  0  0  0  0  0  0  0  0  0
    1.9962  -49.2684  -19.1046 C   0  0  0  0  0  0  0  0  0  0  0  0
    2.1179  -50.6273  -18.9410 C   0  0  0  0  0  0  0  0  0  0  0  0
    1.5995  -51.4801  -19.8884 C   0  0  0  0  0  0  0  0  0  0  0  0
    0.9529  -51.0127  -21.0125 C   0  0  0  0  0  0  0  0  0  0  0  0
    0.8279  -49.6363  -21.1812 C   0  0  0  0  0  0  0  0  0  0  0  0
    1.3530  -48.8062  -20.2229 C   0  0  0  0  0  0  0  0  0  0  0  0
    3.3169  -48.8491  -17.1133 C   0  0  0  0  0  0  0  0  0  0  0  0
    2.5016  -48.3854  -18.1791 O   0  0  0  0  0  0  0  0  0  0  0  0
   -1.2566  -54.9024  -23.1671 C   0  0  0  0  0  0  0  0  0  0  0  0
   -1.1520  -55.7216  -24.2525 O   0  0  0  0  0  0  0  0  0  0  0  0
   -2.0143  -55.2803  -22.2398 O   0  0  0  0  0  0  0  0  0  0  0  0
   -1.0685  -56.7272  -24.2385 H   0  0  0  0  0  0  0  0  0  0  0  0
 22 23  1  0  0  0
 23 16  1  0  0  0
 16 17  2  0  0  0
 17 18  1  0  0  0
 18 19  2  0  0  0
 19 20  1  0  0  0
 20 21  2  0  0  0
 19  1  1  0  0  0
  1  2  2  0  0  0
  2  3  1  0  0  0
  3  4  2  0  0  0
  4  5  1  0  0  0
  4 24  1  0  0  0
 24 25  1  0  0  0
 24 26  2  0  0  0
  3  7  1  0  0  0
  7  8  2  0  0  0
  8  9  1  0  0  0
  9 10  2  0  0  0
 10 11  1  0  0  0
 10 12  1  0  0  0
 12 13  2  0  0  0
 12 14  1  0  0  0
 14 15  3  0  0  0
 21 16  1  0  0  0
  5  1  1  0  0  0
 13  7  1  0  0  0
  5  6  1  0  0  0
 25 27  1  0  0  0
M  END
> <minimizedAffinity>
-8.30003

> <CNNscore>
0.8480188847

> <CNNaffinity>
6.6094541550

> <CNN_VS>
5.6049418449

> <CNNaffinity_variance>
0.0935373083

$$$$
[H]OC(=O)c1c(-c2c([H])c([H])c(F)c(C#N)c2[H])nc(-c2c([H])c([H])c(OC([H])([H])[H])c([H])c2[H])n1[H]


 27 29  0  0  0  0  0  0  0  0999 V2000
    0.7160  -51.6310  -21.6889 C   0  0  0  0  0  0  0  0  0  0  0  0
    0.0486  -52.0946  -22.7406 N   0  0  0  0  0  0  0  0  0  0  0  0
    0.7225  -51.8026  -23.9116 C   0  0  0  0  0  0  0  0  0  0  0  0
    1.8521  -51.1305  -23.5269 C   0  0  0  0  0  0  0  0  0  0  0  0
    1.8055  -51.0478  -22.1613 N   0  0  0  0  0  0  0  0  0  0  0  0
    2.5202  -50.5941  -21.5823 H   0  0  0  0  0  0  0  0  0  0  0  0
    0.2587  -52.1953  -25.2335 C   0  0  0  0  0  0  0  0  0  0  0  0
   -1.0047  -51.8931  -25.6480 C   0  0  0  0  0  0  0  0  0  0  0  0
   -1.4278  -52.2600  -26.9274 C   0  0  0  0  0  0  0  0  0  0  0  0
   -0.5796  -52.9297  -27.7849 C   0  0  0  0  0  0  0  0  0  0  0  0
   -0.9572  -53.3045  -29.0421 F   0  0  0  0  0  0  0  0  0  0  0  0
    0.7074  -53.2419  -27.3712 C   0  0  0  0  0  0  0  0  0  0  0  0
    1.1084  -52.8674  -26.0945 C   0  0  0  0  0  0  0  0  0  0  0  0
    1.5830  -53.9411  -28.2745 C   0  0  0  0  0  0  0  0  0  0  0  0
    2.2834  -54.5176  -28.9933 N   0  0  0  0  0  0  0  0  0  0  0  0
   -0.5654  -52.0377  -17.6622 C   0  0  0  0  0  0  0  0  0  0  0  0
    0.1905  -50.9555  -18.0439 C   0  0  0  0  0  0  0  0  0  0  0  0
    0.6005  -50.8338  -19.3519 C   0  0  0  0  0  0  0  0  0  0  0  0
    0.2749  -51.7728  -20.3071 C   0  0  0  0  0  0  0  0  0  0  0  0
   -0.4909  -52.8705  -19.9235 C   0  0  0  0  0  0  0  0  0  0  0  0
   -0.8877  -52.9698  -18.6136 C   0  0  0  0  0  0  0  0  0  0  0  0
   -1.9441  -51.2972  -15.8085 C   0  0  0  0  0  0  0  0  0  0  0  0
   -0.9932  -52.1931  -16.3644 O   0  0  0  0  0  0  0  0  0  0  0  0
    2.9313  -50.6098  -24.3375 C   0  0  0  0  0  0  0  0  0  0  0  0
    4.0872  -51.2846  -24.5997 O   0  0  0  0  0  0  0  0  0  0  0  0
    2.8156  -49.4638  -24.8375 O   0  0  0  0  0  0  0  0  0  0  0  0
    4.5623  -51.3367  -25.4885 H   0  0  0  0  0  0  0  0  0  0  0  0
 22 23  1  0  0  0
 23 16  1  0  0  0
 16 17  2  0  0  0
 17 18  1  0  0  0
 18 19  2  0  0  0
 19 20  1  0  0  0
 20 21  2  0  0  0
 19  1  1  0  0  0
  1  2  2  0  0  0
  2  3  1  0  0  0
  3  4  2  0  0  0
  4  5  1  0  0  0
  4 24  1  0  0  0
 24 25  1  0  0  0
 24 26  2  0  0  0
  3  7  1  0  0  0
  7  8  2  0  0  0
  8  9  1  0  0  0
  9 10  2  0  0  0
 10 11  1  0  0  0
 10 12  1  0  0  0
 12 13  2  0  0  0
 12 14  1  0  0  0
 14 15  3  0  0  0
 21 16  1  0  0  0
  5  1  1  0  0  0
 13  7  1  0  0  0
  5  6  1  0  0  0
 25 27  1  0  0  0
M  END
> <minimizedAffinity>
-7.58449

> <CNNscore>
0.6069070697

> <CNNaffinity>
6.2855119705

> <CNN_VS>
3.8147215843

> <CNNaffinity_variance>
0.0451632738

$$$$
[H]OC(=O)c1c(-c2c([H])c([H])c(F)c(C#N)c2[H])nc(-c2c([H])c([H])c(OC([H])([H])[H])c([H])c2[H])n1[H]


 27 29  0  0  0  0  0  0  0  0999 V2000
    0.7314  -52.2650  -21.4131 C   0  0  0  0  0  0  0  0  0  0  0  0
    0.9130  -51.9413  -22.6892 N   0  0  0  0  0  0  0  0  0  0  0  0
    0.2594  -52.8360  -23.5157 C   0  0  0  0  0  0  0  0  0  0  0  0
   -0.3430  -53.7365  -22.6779 C   0  0  0  0  0  0  0  0  0  0  0  0
   -0.0265  -53.3493  -21.4036 N   0  0  0  0  0  0  0  0  0  0  0  0
   -0.3361  -53.8355  -20.5552 H   0  0  0  0  0  0  0  0  0  0  0  0
    0.2501  -52.7408  -24.9675 C   0  0  0  0  0  0  0  0  0  0  0  0
    1.4169  -52.6761  -25.6701 C   0  0  0  0  0  0  0  0  0  0  0  0
    1.3909  -52.6049  -27.0646 C   0  0  0  0  0  0  0  0  0  0  0  0
    0.1921  -52.5983  -27.7474 C   0  0  0  0  0  0  0  0  0  0  0  0
    0.1267  -52.5297  -29.1093 F   0  0  0  0  0  0  0  0  0  0  0  0
   -1.0000  -52.6630  -27.0405 C   0  0  0  0  0  0  0  0  0  0  0  0
   -0.9517  -52.7336  -25.6536 C   0  0  0  0  0  0  0  0  0  0  0  0
   -2.2442  -52.6550  -27.7640 C   0  0  0  0  0  0  0  0  0  0  0  0
   -3.2502  -52.6363  -28.3360 N   0  0  0  0  0  0  0  0  0  0  0  0
    2.3501  -50.1012  -18.1391 C   0  0  0  0  0  0  0  0  0  0  0  0
    1.1142  -49.7748  -18.6434 C   0  0  0  0  0  0  0  0  0  0  0  0
    0.5992  -50.4830  -19.7050 C   0  0  0  0  0  0  0  0  0  0  0  0
    1.2892  -51.5236  -20.2891 C   0  0  0  0  0  0  0  0  0  0  0  0
    2.5417  -51.8567  -19.7803 C   0  0  0  0  0  0  0  0  0  0  0  0
    3.0340  -51.1360  -18.7214 C   0  0  0  0  0  0  0  0  0  0  0  0
    3.3858  -50.1169  -15.9453 C   0  0  0  0  0  0  0  0  0  0  0  0
    2.8970  -49.4162  -17.0792 O   0  0  0  0  0  0  0  0  0  0  0  0
   -1.1799  -54.8719  -22.9995 C   0  0  0  0  0  0  0  0  0  0  0  0
   -1.0553  -55.6189  -24.1338 O   0  0  0  0  0  0  0  0  0  0  0  0
   -2.0861  -55.2040  -22.1962 O   0  0  0  0  0  0  0  0  0  0  0  0
   -1.1074  -56.6247  -24.1977 H   0  0  0  0  0  0  0  0  0  0  0  0
 22 23  1  0  0  0
 23 16  1  0  0  0
 16 17  2  0  0  0
 17 18  1  0  0  0
 18 19  2  0  0  0
 19 20  1  0  0  0
 20 21  2  0  0  0
 19  1  1  0  0  0
  1  2  2  0  0  0
  2  3  1  0  0  0
  3  4  2  0  0  0
  4  5  1  0  0  0
  4 24  1  0  0  0
 24 25  1  0  0  0
 24 26  2  0  0  0
  3  7  1  0  0  0
  7  8  2  0  0  0
  8  9  1  0  0  0
  9 10  2  0  0  0
 10 11  1  0  0  0
 10 12  1  0  0  0
 12 13  2  0  0  0
 12 14  1  0  0  0
 14 15  3  0  0  0
 21 16  1  0  0  0
  5  1  1  0  0  0
 13  7  1  0  0  0
  5  6  1  0  0  0
 25 27  1  0  0  0
M  END
> <minimizedAffinity>
-7.76778

> <CNNscore>
0.5666191578

> <CNNaffinity>
6.3053030968

> <CNN_VS>
3.5727055073

> <CNNaffinity_variance>
0.0515157208

$$$$
[H]OC(=O)c1c(-c2c([H])c([H])c(F)c(C#N)c2[H])nc(-c2c([H])c([H])c(OC([H])([H])[H])c([H])c2[H])n1[H]


 27 29  0  0  0  0  0  0  0  0999 V2000
   -0.3698  -52.6864  -19.7886 C   0  0  0  0  0  0  0  0  0  0  0  0
    0.3753  -52.1322  -20.7393 N   0  0  0  0  0  0  0  0  0  0  0  0
    0.2480  -52.8299  -21.9257 C   0  0  0  0  0  0  0  0  0  0  0  0
   -0.6236  -53.8520  -21.6585 C   0  0  0  0  0  0  0  0  0  0  0  0
   -0.9738  -53.7257  -20.3411 N   0  0  0  0  0  0  0  0  0  0  0  0
   -1.6185  -54.3535  -19.8489 H   0  0  0  0  0  0  0  0  0  0  0  0
    0.9228  -52.4598  -23.1605 C   0  0  0  0  0  0  0  0  0  0  0  0
    0.2139  -52.0127  -24.2361 C   0  0  0  0  0  0  0  0  0  0  0  0
    0.8786  -51.6427  -25.4073 C   0  0  0  0  0  0  0  0  0  0  0  0
    2.2532  -51.7243  -25.4930 C   0  0  0  0  0  0  0  0  0  0  0  0
    2.9376  -51.3718  -26.6204 F   0  0  0  0  0  0  0  0  0  0  0  0
    2.9823  -52.1788  -24.4036 C   0  0  0  0  0  0  0  0  0  0  0  0
    2.3014  -52.5415  -23.2479 C   0  0  0  0  0  0  0  0  0  0  0  0
    4.4157  -52.2598  -24.5053 C   0  0  0  0  0  0  0  0  0  0  0  0
    5.5698  -52.3122  -24.5764 N   0  0  0  0  0  0  0  0  0  0  0  0
   -0.6335  -51.2520  -15.8018 C   0  0  0  0  0  0  0  0  0  0  0  0
   -1.4825  -52.2389  -16.2417 C   0  0  0  0  0  0  0  0  0  0  0  0
   -1.3882  -52.6963  -17.5361 C   0  0  0  0  0  0  0  0  0  0  0  0
   -0.4584  -52.1923  -18.4203 C   0  0  0  0  0  0  0  0  0  0  0  0
    0.4033  -51.1923  -17.9775 C   0  0  0  0  0  0  0  0  0  0  0  0
    0.2899  -50.7527  -16.6826 C   0  0  0  0  0  0  0  0  0  0  0  0
   -1.6310  -51.3095  -13.5911 C   0  0  0  0  0  0  0  0  0  0  0  0
   -0.6981  -50.7699  -14.5153 O   0  0  0  0  0  0  0  0  0  0  0  0
   -1.1367  -54.8757  -22.5426 C   0  0  0  0  0  0  0  0  0  0  0  0
   -2.4243  -55.3254  -22.5286 O   0  0  0  0  0  0  0  0  0  0  0  0
   -0.3610  -55.3972  -23.3811 O   0  0  0  0  0  0  0  0  0  0  0  0
   -3.0002  -55.5190  -23.3343 H   0  0  0  0  0  0  0  0  0  0  0  0
 22 23  1  0  0  0
 23 16  1  0  0  0
 16 17  2  0  0  0
 17 18  1  0  0  0
 18 19  2  0  0  0
 19 20  1  0  0  0
 20 21  2  0  0  0
 19  1  1  0  0  0
  1  2  2  0  0  0
  2  3  1  0  0  0
  3  4  2  0  0  0
  4  5  1  0  0  0
  4 24  1  0  0  0
 24 25  1  0  0  0
 24 26  2  0  0  0
  3  7  1  0  0  0
  7  8  2  0  0  0
  8  9  1  0  0  0
  9 10  2  0  0  0
 10 11  1  0  0  0
 10 12  1  0  0  0
 12 13  2  0  0  0
 12 14  1  0  0  0
 14 15  3  0  0  0
 21 16  1  0  0  0
  5  1  1  0  0  0
 13  7  1  0  0  0
  5  6  1  0  0  0
 25 27  1  0  0  0
M  END
> <minimizedAffinity>
-6.75092

> <CNNscore>
0.3969423473

> <CNNaffinity>
5.7241010666

> <CNN_VS>
2.2721381187

> <CNNaffinity_variance>
0.0563867316

$$$$
[H]OC(=O)c1c(-c2c([H])c([H])c(F)c(C#N)c2[H])nc(-c2c([H])c([H])c(OC([H])([H])[H])c([H])c2[H])n1[H]


 27 29  0  0  0  0  0  0  0  0999 V2000
    2.1410  -49.6461  -19.5086 C   0  0  0  0  0  0  0  0  0  0  0  0
    1.3473  -50.4296  -20.2314 N   0  0  0  0  0  0  0  0  0  0  0  0
    1.8062  -50.5194  -21.5321 C   0  0  0  0  0  0  0  0  0  0  0  0
    2.9358  -49.7463  -21.5768 C   0  0  0  0  0  0  0  0  0  0  0  0
    3.1010  -49.2316  -20.3191 N   0  0  0  0  0  0  0  0  0  0  0  0
    3.8670  -48.6081  -20.0429 H   0  0  0  0  0  0  0  0  0  0  0  0
    1.1655  -51.3198  -22.5645 C   0  0  0  0  0  0  0  0  0  0  0  0
    1.3043  -50.9993  -23.8825 C   0  0  0  0  0  0  0  0  0  0  0  0
    0.6990  -51.7895  -24.8622 C   0  0  0  0  0  0  0  0  0  0  0  0
   -0.0440  -52.8983  -24.5131 C   0  0  0  0  0  0  0  0  0  0  0  0
   -0.6502  -53.6943  -25.4419 F   0  0  0  0  0  0  0  0  0  0  0  0
   -0.1911  -53.2313  -23.1743 C   0  0  0  0  0  0  0  0  0  0  0  0
    0.4196  -52.4320  -22.2157 C   0  0  0  0  0  0  0  0  0  0  0  0
   -0.9690  -54.3901  -22.8225 C   0  0  0  0  0  0  0  0  0  0  0  0
   -1.6053  -55.3122  -22.5319 N   0  0  0  0  0  0  0  0  0  0  0  0
    1.5336  -48.7668  -15.4001 C   0  0  0  0  0  0  0  0  0  0  0  0
    0.4795  -49.1615  -16.1884 C   0  0  0  0  0  0  0  0  0  0  0  0
    0.6879  -49.4440  -17.5190 C   0  0  0  0  0  0  0  0  0  0  0  0
    1.9350  -49.3437  -18.0978 C   0  0  0  0  0  0  0  0  0  0  0  0
    3.0050  -48.9440  -17.3016 C   0  0  0  0  0  0  0  0  0  0  0  0
    2.7723  -48.6679  -15.9778 C   0  0  0  0  0  0  0  0  0  0  0  0
    2.4865  -48.3774  -13.2033 C   0  0  0  0  0  0  0  0  0  0  0  0
    1.3637  -48.4762  -14.0666 O   0  0  0  0  0  0  0  0  0  0  0  0
    3.8361  -49.4994  -22.6820 C   0  0  0  0  0  0  0  0  0  0  0  0
    4.8045  -50.3685  -23.0904 O   0  0  0  0  0  0  0  0  0  0  0  0
    3.7363  -48.4199  -23.3158 O   0  0  0  0  0  0  0  0  0  0  0  0
    5.0371  -50.6016  -24.0444 H   0  0  0  0  0  0  0  0  0  0  0  0
 22 23  1  0  0  0
 23 16  1  0  0  0
 16 17  2  0  0  0
 17 18  1  0  0  0
 18 19  2  0  0  0
 19 20  1  0  0  0
 20 21  2  0  0  0
 19  1  1  0  0  0
  1  2  2  0  0  0
  2  3  1  0  0  0
  3  4  2  0  0  0
  4  5  1  0  0  0
  4 24  1  0  0  0
 24 25  1  0  0  0
 24 26  2  0  0  0
  3  7  1  0  0  0
  7  8  2  0  0  0
  8  9  1  0  0  0
  9 10  2  0  0  0
 10 11  1  0  0  0
 10 12  1  0  0  0
 12 13  2  0  0  0
 12 14  1  0  0  0
 14 15  3  0  0  0
 21 16  1  0  0  0
  5  1  1  0  0  0
 13  7  1  0  0  0
  5  6  1  0  0  0
 25 27  1  0  0  0
M  END
> <minimizedAffinity>
-5.68157

> <CNNscore>
0.3705686033

> <CNNaffinity>
5.7598700523

> <CNN_VS>
2.1344270706

> <CNNaffinity_variance>
0.9090548754

$$$$
[H]OC(=O)c1c(-c2c([H])c([H])c(F)c(C#N)c2[H])nc(-c2c([H])c([H])c(OC([H])([H])[H])c([H])c2[H])n1[H]


 27 29  0  0  0  0  0  0  0  0999 V2000
    1.4165  -51.8539  -22.2226 C   0  0  0  0  0  0  0  0  0  0  0  0
    0.7515  -52.1572  -23.3326 N   0  0  0  0  0  0  0  0  0  0  0  0
    1.5665  -52.0202  -24.4406 C   0  0  0  0  0  0  0  0  0  0  0  0
    2.7812  -51.6151  -23.9547 C   0  0  0  0  0  0  0  0  0  0  0  0
    2.6426  -51.5256  -22.5957 N   0  0  0  0  0  0  0  0  0  0  0  0
    3.3900  -51.2418  -21.9532 H   0  0  0  0  0  0  0  0  0  0  0  0
    1.1371  -52.2991  -25.8025 C   0  0  0  0  0  0  0  0  0  0  0  0
    2.0431  -52.6327  -26.7653 C   0  0  0  0  0  0  0  0  0  0  0  0
    1.6123  -52.9167  -28.0631 C   0  0  0  0  0  0  0  0  0  0  0  0
    0.2725  -52.8637  -28.3881 C   0  0  0  0  0  0  0  0  0  0  0  0
   -0.1862  -53.1346  -29.6450 F   0  0  0  0  0  0  0  0  0  0  0  0
   -0.6562  -52.5244  -27.4148 C   0  0  0  0  0  0  0  0  0  0  0  0
   -0.2064  -52.2459  -26.1299 C   0  0  0  0  0  0  0  0  0  0  0  0
   -2.0510  -52.4721  -27.7660 C   0  0  0  0  0  0  0  0  0  0  0  0
   -3.1721  -52.4461  -28.0524 N   0  0  0  0  0  0  0  0  0  0  0  0
   -0.2552  -51.9834  -18.3226 C   0  0  0  0  0  0  0  0  0  0  0  0
   -0.4734  -53.0134  -19.2056 C   0  0  0  0  0  0  0  0  0  0  0  0
    0.0734  -52.9609  -20.4673 C   0  0  0  0  0  0  0  0  0  0  0  0
    0.8437  -51.8961  -20.8831 C   0  0  0  0  0  0  0  0  0  0  0  0
    1.0665  -50.8508  -19.9907 C   0  0  0  0  0  0  0  0  0  0  0  0
    0.5108  -50.9259  -18.7383 C   0  0  0  0  0  0  0  0  0  0  0  0
   -0.6285  -50.8824  -16.1933 C   0  0  0  0  0  0  0  0  0  0  0  0
   -0.7853  -52.0009  -17.0536 O   0  0  0  0  0  0  0  0  0  0  0  0
    4.0111  -51.3451  -24.6669 C   0  0  0  0  0  0  0  0  0  0  0  0
    4.9597  -52.2857  -24.9420 O   0  0  0  0  0  0  0  0  0  0  0  0
    4.2385  -50.1751  -25.0623 O   0  0  0  0  0  0  0  0  0  0  0  0
    5.4611  -52.3949  -25.8110 H   0  0  0  0  0  0  0  0  0  0  0  0
 22 23  1  0  0  0
 23 16  1  0  0  0
 16 17  2  0  0  0
 17 18  1  0  0  0
 18 19  2  0  0  0
 19 20  1  0  0  0
 20 21  2  0  0  0
 19  1  1  0  0  0
  1  2  2  0  0  0
  2  3  1  0  0  0
  3  4  2  0  0  0
  4  5  1  0  0  0
  4 24  1  0  0  0
 24 25  1  0  0  0
 24 26  2  0  0  0
  3  7  1  0  0  0
  7  8  2  0  0  0
  8  9  1  0  0  0
  9 10  2  0  0  0
 10 11  1  0  0  0
 10 12  1  0  0  0
 12 13  2  0  0  0
 12 14  1  0  0  0
 14 15  3  0  0  0
 21 16  1  0  0  0
  5  1  1  0  0  0
 13  7  1  0  0  0
  5  6  1  0  0  0
 25 27  1  0  0  0
M  END
> <minimizedAffinity>
-7.61837

> <CNNscore>
0.3122956455

> <CNNaffinity>
5.8920111656

> <CNN_VS>
1.8400493860

> <CNNaffinity_variance>
0.0911666527

$$$$
[H]OC(=O)c1c(-c2c([H])c([H])c(F)c(C#N)c2[H])nc(-c2c([H])c([H])c(OC([H])([H])[H])c([H])c2[H])n1[H]


 27 29  0  0  0  0  0  0  0  0999 V2000
    0.8156  -52.2769  -23.0767 C   0  0  0  0  0  0  0  0  0  0  0  0
    0.0441  -52.2903  -21.9947 N   0  0  0  0  0  0  0  0  0  0  0  0
    0.7808  -51.9758  -20.8682 C   0  0  0  0  0  0  0  0  0  0  0  0
    2.0585  -51.7630  -21.3131 C   0  0  0  0  0  0  0  0  0  0  0  0
    2.0330  -51.9591  -22.6676 N   0  0  0  0  0  0  0  0  0  0  0  0
    2.8491  -51.8713  -23.2826 H   0  0  0  0  0  0  0  0  0  0  0  0
    0.2176  -51.8875  -19.5296 C   0  0  0  0  0  0  0  0  0  0  0  0
   -0.5426  -52.9004  -19.0242 C   0  0  0  0  0  0  0  0  0  0  0  0
   -1.0595  -52.8087  -17.7300 C   0  0  0  0  0  0  0  0  0  0  0  0
   -0.8108  -51.6988  -16.9492 C   0  0  0  0  0  0  0  0  0  0  0  0
   -1.2986  -51.5734  -15.6803 F   0  0  0  0  0  0  0  0  0  0  0  0
   -0.0388  -50.6632  -17.4556 C   0  0  0  0  0  0  0  0  0  0  0  0
    0.4660  -50.7747  -18.7453 C   0  0  0  0  0  0  0  0  0  0  0  0
    0.2135  -49.5104  -16.6315 C   0  0  0  0  0  0  0  0  0  0  0  0
    0.4299  -48.5909  -15.9628 N   0  0  0  0  0  0  0  0  0  0  0  0
   -0.5508  -53.1269  -27.0051 C   0  0  0  0  0  0  0  0  0  0  0  0
    0.0790  -54.0979  -26.2642 C   0  0  0  0  0  0  0  0  0  0  0  0
    0.5179  -53.8112  -24.9919 C   0  0  0  0  0  0  0  0  0  0  0  0
    0.3456  -52.5663  -24.4256 C   0  0  0  0  0  0  0  0  0  0  0  0
   -0.2923  -51.5804  -25.1738 C   0  0  0  0  0  0  0  0  0  0  0  0
   -0.7210  -51.8902  -26.4400 C   0  0  0  0  0  0  0  0  0  0  0  0
   -0.3785  -52.7626  -29.3974 C   0  0  0  0  0  0  0  0  0  0  0  0
   -1.0030  -53.3764  -28.2798 O   0  0  0  0  0  0  0  0  0  0  0  0
    3.2380  -51.3797  -20.5683 C   0  0  0  0  0  0  0  0  0  0  0  0
    4.0771  -50.3671  -20.9297 O   0  0  0  0  0  0  0  0  0  0  0  0
    3.5252  -52.0101  -19.5209 O   0  0  0  0  0  0  0  0  0  0  0  0
    4.4881  -49.6808  -20.3145 H   0  0  0  0  0  0  0  0  0  0  0  0
 22 23  1  0  0  0
 23 16  1  0  0  0
 16 17  2  0  0  0
 17 18  1  0  0  0
 18 19  2  0  0  0
 19 20  1  0  0  0
 20 21  2  0  0  0
 19  1  1  0  0  0
  1  2  2  0  0  0
  2  3  1  0  0  0
  3  4  2  0  0  0
  4  5  1  0  0  0
  4 24  1  0  0  0
 24 25  1  0  0  0
 24 26  2  0  0  0
  3  7  1  0  0  0
  7  8  2  0  0  0
  8  9  1  0  0  0
  9 10  2  0  0  0
 10 11  1  0  0  0
 10 12  1  0  0  0
 12 13  2  0  0  0
 12 14  1  0  0  0
 14 15  3  0  0  0
 21 16  1  0  0  0
  5  1  1  0  0  0
 13  7  1  0  0  0
  5  6  1  0  0  0
 25 27  1  0  0  0
M  END
> <minimizedAffinity>
-7.51340

> <CNNscore>
0.2908550501

> <CNNaffinity>
5.8570756912

> <CNN_VS>
1.7035599947

> <CNNaffinity_variance>
0.1822057217

$$$$
[H]OC(=O)c1c(-c2c([H])c([H])c(F)c(C#N)c2[H])nc(-c2c([H])c([H])c(OC([H])([H])[H])c([H])c2[H])n1[H]


 27 29  0  0  0  0  0  0  0  0999 V2000
    0.3191  -52.6451  -23.7712 C   0  0  0  0  0  0  0  0  0  0  0  0
    0.8928  -51.7105  -23.0203 N   0  0  0  0  0  0  0  0  0  0  0  0
    0.7035  -51.9810  -21.6781 C   0  0  0  0  0  0  0  0  0  0  0  0
   -0.0212  -53.1423  -21.6366 C   0  0  0  0  0  0  0  0  0  0  0  0
   -0.2341  -53.5108  -22.9377 N   0  0  0  0  0  0  0  0  0  0  0  0
   -0.7534  -54.3467  -23.2270 H   0  0  0  0  0  0  0  0  0  0  0  0
    1.2292  -51.1544  -20.6024 C   0  0  0  0  0  0  0  0  0  0  0  0
    0.4293  -50.7595  -19.5711 C   0  0  0  0  0  0  0  0  0  0  0  0
    0.9545  -49.9826  -18.5361 C   0  0  0  0  0  0  0  0  0  0  0  0
    2.2815  -49.6051  -18.5423 C   0  0  0  0  0  0  0  0  0  0  0  0
    2.8304  -48.8465  -17.5488 F   0  0  0  0  0  0  0  0  0  0  0  0
    3.1024  -50.0018  -19.5880 C   0  0  0  0  0  0  0  0  0  0  0  0
    2.5600  -50.7747  -20.6074 C   0  0  0  0  0  0  0  0  0  0  0  0
    4.4849  -49.6014  -19.5834 C   0  0  0  0  0  0  0  0  0  0  0  0
    5.5994  -49.2892  -19.5929 N   0  0  0  0  0  0  0  0  0  0  0  0
    0.3719  -52.6711  -28.0159 C   0  0  0  0  0  0  0  0  0  0  0  0
    1.5135  -52.9560  -27.3060 C   0  0  0  0  0  0  0  0  0  0  0  0
    1.4849  -52.9446  -25.9303 C   0  0  0  0  0  0  0  0  0  0  0  0
    0.3348  -52.6534  -25.2285 C   0  0  0  0  0  0  0  0  0  0  0  0
   -0.8236  -52.3643  -25.9449 C   0  0  0  0  0  0  0  0  0  0  0  0
   -0.7701  -52.3819  -27.3160 C   0  0  0  0  0  0  0  0  0  0  0  0
   -0.7934  -53.0919  -30.1018 C   0  0  0  0  0  0  0  0  0  0  0  0
    0.3622  -52.6729  -29.3913 O   0  0  0  0  0  0  0  0  0  0  0  0
   -0.4796  -53.8980  -20.4913 C   0  0  0  0  0  0  0  0  0  0  0  0
    0.3209  -54.2807  -19.4555 O   0  0  0  0  0  0  0  0  0  0  0  0
   -1.6879  -54.2345  -20.4310 O   0  0  0  0  0  0  0  0  0  0  0  0
    0.0878  -54.2480  -18.4741 H   0  0  0  0  0  0  0  0  0  0  0  0
 22 23  1  0  0  0
 23 16  1  0  0  0
 16 17  2  0  0  0
 17 18  1  0  0  0
 18 19  2  0  0  0
 19 20  1  0  0  0
 20 21  2  0  0  0
 19  1  1  0  0  0
  1  2  2  0  0  0
  2  3  1  0  0  0
  3  4  2  0  0  0
  4  5  1  0  0  0
  4 24  1  0  0  0
 24 25  1  0  0  0
 24 26  2  0  0  0
  3  7  1  0  0  0
  7  8  2  0  0  0
  8  9  1  0  0  0
  9 10  2  0  0  0
 10 11  1  0  0  0
 10 12  1  0  0  0
 12 13  2  0  0  0
 12 14  1  0  0  0
 14 15  3  0  0  0
 21 16  1  0  0  0
  5  1  1  0  0  0
 13  7  1  0  0  0
  5  6  1  0  0  0
 25 27  1  0  0  0
M  END
> <minimizedAffinity>
-6.91969

> <CNNscore>
0.2742770016

> <CNNaffinity>
5.7870702744

> <CNN_VS>
1.5872602463

> <CNNaffinity_variance>
0.1228041649

$$$$
[H]OC(=O)c1c(-c2c([H])c([H])c(F)c(C#N)c2[H])nc(-c2c([H])c([H])c(OC([H])([H])[H])c([H])c2[H])n1[H]


 27 29  0  0  0  0  0  0  0  0999 V2000
    1.2387  -50.5603  -21.0592 C   0  0  0  0  0  0  0  0  0  0  0  0
    1.3583  -50.9768  -22.3156 N   0  0  0  0  0  0  0  0  0  0  0  0
    0.6231  -52.1298  -22.5178 C   0  0  0  0  0  0  0  0  0  0  0  0
    0.0355  -52.4063  -21.3120 C   0  0  0  0  0  0  0  0  0  0  0  0
    0.4405  -51.4224  -20.4508 N   0  0  0  0  0  0  0  0  0  0  0  0
    0.1620  -51.3622  -19.4655 H   0  0  0  0  0  0  0  0  0  0  0  0
    0.5331  -52.8203  -23.7952 C   0  0  0  0  0  0  0  0  0  0  0  0
   -0.3974  -53.7965  -23.9967 C   0  0  0  0  0  0  0  0  0  0  0  0
   -0.4836  -54.4360  -25.2353 C   0  0  0  0  0  0  0  0  0  0  0  0
    0.3663  -54.0922  -26.2663 C   0  0  0  0  0  0  0  0  0  0  0  0
    0.3121  -54.6946  -27.4902 F   0  0  0  0  0  0  0  0  0  0  0  0
    1.3165  -53.1006  -26.0699 C   0  0  0  0  0  0  0  0  0  0  0  0
    1.3851  -52.4767  -24.8301 C   0  0  0  0  0  0  0  0  0  0  0  0
    2.1976  -52.7509  -27.1529 C   0  0  0  0  0  0  0  0  0  0  0  0
    2.9183  -52.4787  -28.0167 N   0  0  0  0  0  0  0  0  0  0  0  0
    3.1338  -47.1034  -19.4845 C   0  0  0  0  0  0  0  0  0  0  0  0
    2.6904  -48.0954  -18.6435 C   0  0  0  0  0  0  0  0  0  0  0  0
    2.0774  -49.2117  -19.1648 C   0  0  0  0  0  0  0  0  0  0  0  0
    1.8896  -49.3726  -20.5209 C   0  0  0  0  0  0  0  0  0  0  0  0
    2.3379  -48.3691  -21.3758 C   0  0  0  0  0  0  0  0  0  0  0  0
    2.9461  -47.2656  -20.8322 C   0  0  0  0  0  0  0  0  0  0  0  0
    5.1360  -45.9881  -18.6889 C   0  0  0  0  0  0  0  0  0  0  0  0
    3.7509  -45.9737  -19.0001 O   0  0  0  0  0  0  0  0  0  0  0  0
   -0.8626  -53.4824  -20.9539 C   0  0  0  0  0  0  0  0  0  0  0  0
   -0.4553  -54.7358  -20.6028 O   0  0  0  0  0  0  0  0  0  0  0  0
   -2.0999  -53.2683  -20.9641 O   0  0  0  0  0  0  0  0  0  0  0  0
   -0.8253  -55.2974  -19.8504 H   0  0  0  0  0  0  0  0  0  0  0  0
 22 23  1  0  0  0
 23 16  1  0  0  0
 16 17  2  0  0  0
 17 18  1  0  0  0
 18 19  2  0  0  0
 19 20  1  0  0  0
 20 21  2  0  0  0
 19  1  1  0  0  0
  1  2  2  0  0  0
  2  3  1  0  0  0
  3  4  2  0  0  0
  4  5  1  0  0  0
  4 24  1  0  0  0
 24 25  1  0  0  0
 24 26  2  0  0  0
  3  7  1  0  0  0
  7  8  2  0  0  0
  8  9  1  0  0  0
  9 10  2  0  0  0
 10 11  1  0  0  0
 10 12  1  0  0  0
 12 13  2  0  0  0
 12 14  1  0  0  0
 14 15  3  0  0  0
 21 16  1  0  0  0
  5  1  1  0  0  0
 13  7  1  0  0  0
  5  6  1  0  0  0
 25 27  1  0  0  0
M  END
> <minimizedAffinity>
-6.52335

> <CNNscore>
0.2443243265

> <CNNaffinity>
5.7134084702

> <CNN_VS>
1.3959246874

> <CNNaffinity_variance>
0.1897006333

$$$$
[H]O[C@]([H])(C([H])([H])[H])[C@]([H])(c1c([H])c([H])c(C#N)c([H])c1[H])N([H])c1c([H])c([H])c(C(F)(F)F)c([H])c1[H]


 25 26  0  0  0  0  0  0  0  0999 V2000
    0.0771  -53.6365  -22.7202 C   0  0  0  0  0  0  0  0  0  0  0  0
    0.1903  -52.7710  -21.4907 C   0  0  0  0  0  0  0  0  0  0  0  0
    0.3312  -53.2904  -20.2228 C   0  0  0  0  0  0  0  0  0  0  0  0
    0.4307  -52.4875  -19.1052 C   0  0  0  0  0  0  0  0  0  0  0  0
    0.3917  -51.1166  -19.2172 C   0  0  0  0  0  0  0  0  0  0  0  0
    0.2499  -50.5791  -20.4869 C   0  0  0  0  0  0  0  0  0  0  0  0
    0.1521  -51.3960  -21.5931 C   0  0  0  0  0  0  0  0  0  0  0  0
    0.4994  -50.2648  -18.0541 C   0  0  0  0  0  0  0  0  0  0  0  0
    0.5981  -49.5704  -17.1343 N   0  0  0  0  0  0  0  0  0  0  0  0
   -1.0785  -55.5536  -23.6770 C   0  0  0  0  0  0  0  0  0  0  0  0
   -1.2493  -54.2766  -22.8402 C   0  0  0  0  0  0  0  0  0  0  0  0
   -1.8484  -54.6616  -21.6729 O   0  0  0  0  0  0  0  0  0  0  0  0
   -1.6575  -54.0708  -20.9048 H   0  0  0  0  0  0  0  0  0  0  0  0
    0.6595  -53.0214  -23.8486 N   0  0  0  0  0  0  0  0  0  0  0  0
    1.5537  -52.4483  -23.6705 H   0  0  0  0  0  0  0  0  0  0  0  0
    0.2597  -53.0258  -25.1992 C   0  0  0  0  0  0  0  0  0  0  0  0
    0.9226  -53.6984  -26.1703 C   0  0  0  0  0  0  0  0  0  0  0  0
    0.5027  -53.6065  -27.4899 C   0  0  0  0  0  0  0  0  0  0  0  0
   -0.5827  -52.8448  -27.8548 C   0  0  0  0  0  0  0  0  0  0  0  0
   -1.2740  -52.1542  -26.8869 C   0  0  0  0  0  0  0  0  0  0  0  0
   -0.8531  -52.2513  -25.5985 C   0  0  0  0  0  0  0  0  0  0  0  0
   -0.9487  -52.7947  -29.2879 C   0  0  0  0  0  0  0  0  0  0  0  0
   -1.5018  -51.5215  -29.5041 F   0  0  0  0  0  0  0  0  0  0  0  0
   -1.8721  -53.7529  -29.6275 F   0  0  0  0  0  0  0  0  0  0  0  0
    0.1635  -52.8864  -30.0813 F   0  0  0  0  0  0  0  0  0  0  0  0
 10 11  1  0  0  0
 11 12  1  0  0  0
 11  1  1  0  0  0
  1 14  1  0  0  0
 14 16  1  0  0  0
 16 17  2  0  0  0
 17 18  1  0  0  0
 18 19  2  0  0  0
 19 20  1  0  0  0
 20 21  2  0  0  0
 19 22  1  0  0  0
 22 23  1  0  0  0
 22 24  1  0  0  0
 22 25  1  0  0  0
  1  2  1  0  0  0
  2  3  2  0  0  0
  3  4  1  0  0  0
  4  5  2  0  0  0
  5  6  1  0  0  0
  6  7  2  0  0  0
  5  8  1  0  0  0
  8  9  3  0  0  0
 21 16  1  0  0  0
  7  2  1  0  0  0
 12 13  1  0  0  0
 14 15  1  0  0  0
M  END
> <minimizedAffinity>
-7.50112

> <CNNscore>
0.6225681305

> <CNNaffinity>
5.7229342461

> <CNN_VS>
3.5629165173

> <CNNaffinity_variance>
0.1546588093

$$$$
[H]O[C@]([H])(C([H])([H])[H])[C@]([H])(c1c([H])c([H])c(C#N)c([H])c1[H])N([H])c1c([H])c([H])c(C(F)(F)F)c([H])c1[H]


 25 26  0  0  0  0  0  0  0  0999 V2000
    0.1756  -52.5934  -26.9382 C   0  0  0  0  0  0  0  0  0  0  0  0
    1.4678  -52.2245  -26.2543 C   0  0  0  0  0  0  0  0  0  0  0  0
    2.3504  -53.1642  -25.7695 C   0  0  0  0  0  0  0  0  0  0  0  0
    3.5284  -52.8135  -25.1427 C   0  0  0  0  0  0  0  0  0  0  0  0
    3.8705  -51.4913  -24.9755 C   0  0  0  0  0  0  0  0  0  0  0  0
    2.9920  -50.5339  -25.4578 C   0  0  0  0  0  0  0  0  0  0  0  0
    1.8191  -50.9018  -26.0820 C   0  0  0  0  0  0  0  0  0  0  0  0
    5.1041  -51.1114  -24.3243 C   0  0  0  0  0  0  0  0  0  0  0  0
    6.0835  -50.7882  -23.8006 N   0  0  0  0  0  0  0  0  0  0  0  0
   -0.8049  -52.7069  -29.1634 C   0  0  0  0  0  0  0  0  0  0  0  0
    0.3897  -53.1335  -28.2968 C   0  0  0  0  0  0  0  0  0  0  0  0
    1.5104  -52.7059  -28.9533 O   0  0  0  0  0  0  0  0  0  0  0  0
    2.2859  -52.5382  -28.3653 H   0  0  0  0  0  0  0  0  0  0  0  0
   -0.7133  -53.2480  -26.0594 N   0  0  0  0  0  0  0  0  0  0  0  0
   -1.5178  -53.7979  -26.5176 H   0  0  0  0  0  0  0  0  0  0  0  0
   -0.7307  -53.3033  -24.6520 C   0  0  0  0  0  0  0  0  0  0  0  0
   -0.5950  -52.2117  -23.8617 C   0  0  0  0  0  0  0  0  0  0  0  0
   -0.5619  -52.3530  -22.4814 C   0  0  0  0  0  0  0  0  0  0  0  0
   -0.6653  -53.5830  -21.8749 C   0  0  0  0  0  0  0  0  0  0  0  0
   -0.8063  -54.7065  -22.6556 C   0  0  0  0  0  0  0  0  0  0  0  0
   -0.8367  -54.5559  -24.0057 C   0  0  0  0  0  0  0  0  0  0  0  0
   -0.6055  -53.6385  -20.3972 C   0  0  0  0  0  0  0  0  0  0  0  0
   -0.4069  -52.3163  -19.9657 F   0  0  0  0  0  0  0  0  0  0  0  0
    0.4265  -54.4225  -19.9428 F   0  0  0  0  0  0  0  0  0  0  0  0
   -1.8005  -54.0537  -19.8735 F   0  0  0  0  0  0  0  0  0  0  0  0
 10 11  1  0  0  0
 11 12  1  0  0  0
 11  1  1  0  0  0
  1 14  1  0  0  0
 14 16  1  0  0  0
 16 17  2  0  0  0
 17 18  1  0  0  0
 18 19  2  0  0  0
 19 20  1  0  0  0
 20 21  2  0  0  0
 19 22  1  0  0  0
 22 23  1  0  0  0
 22 24  1  0  0  0
 22 25  1  0  0  0
  1  2  1  0  0  0
  2  3  2  0  0  0
  3  4  1  0  0  0
  4  5  2  0  0  0
  5  6  1  0  0  0
  6  7  2  0  0  0
  5  8  1  0  0  0
  8  9  3  0  0  0
 21 16  1  0  0  0
  7  2  1  0  0  0
 12 13  1  0  0  0
 14 15  1  0  0  0
M  END
> <minimizedAffinity>
-7.73676

> <CNNscore>
0.3893564939

> <CNNaffinity>
5.6582894325

> <CNN_VS>
2.2030916214

> <CNNaffinity_variance>
0.2905888855

$$$$
[H]O[C@]([H])(C([H])([H])[H])[C@]([H])(c1c([H])c([H])c(C#N)c([H])c1[H])N([H])c1c([H])c([H])c(C(F)(F)F)c([H])c1[H]


 25 26  0  0  0  0  0  0  0  0999 V2000
    1.6753  -51.6872  -22.9882 C   0  0  0  0  0  0  0  0  0  0  0  0
    1.0438  -51.8844  -21.6333 C   0  0  0  0  0  0  0  0  0  0  0  0
    0.4643  -53.0723  -21.2457 C   0  0  0  0  0  0  0  0  0  0  0  0
   -0.1131  -53.2390  -20.0038 C   0  0  0  0  0  0  0  0  0  0  0  0
   -0.1324  -52.2085  -19.0921 C   0  0  0  0  0  0  0  0  0  0  0  0
    0.4466  -51.0066  -19.4680 C   0  0  0  0  0  0  0  0  0  0  0  0
    1.0195  -50.8572  -20.7130 C   0  0  0  0  0  0  0  0  0  0  0  0
   -0.7305  -52.3724  -17.7861 C   0  0  0  0  0  0  0  0  0  0  0  0
   -1.2065  -52.5242  -16.7429 N   0  0  0  0  0  0  0  0  0  0  0  0
    3.9942  -52.1687  -23.5511 C   0  0  0  0  0  0  0  0  0  0  0  0
    3.0485  -51.1489  -22.8985 C   0  0  0  0  0  0  0  0  0  0  0  0
    3.2784  -49.9569  -23.5278 O   0  0  0  0  0  0  0  0  0  0  0  0
    2.5085  -49.3384  -23.5191 H   0  0  0  0  0  0  0  0  0  0  0  0
    1.4049  -52.7681  -23.8539 N   0  0  0  0  0  0  0  0  0  0  0  0
    1.8082  -53.7235  -23.5637 H   0  0  0  0  0  0  0  0  0  0  0  0
    0.6839  -52.8113  -25.0632 C   0  0  0  0  0  0  0  0  0  0  0  0
    1.1549  -53.3951  -26.1910 C   0  0  0  0  0  0  0  0  0  0  0  0
    0.4114  -53.3451  -27.3619 C   0  0  0  0  0  0  0  0  0  0  0  0
   -0.8094  -52.7145  -27.4202 C   0  0  0  0  0  0  0  0  0  0  0  0
   -1.3105  -52.1161  -26.2877 C   0  0  0  0  0  0  0  0  0  0  0  0
   -0.5733  -52.1709  -25.1475 C   0  0  0  0  0  0  0  0  0  0  0  0
   -1.5246  -52.6991  -28.7157 C   0  0  0  0  0  0  0  0  0  0  0  0
   -1.2751  -53.9461  -29.3129 F   0  0  0  0  0  0  0  0  0  0  0  0
   -1.0803  -51.7015  -29.5486 F   0  0  0  0  0  0  0  0  0  0  0  0
   -2.8779  -52.6106  -28.5276 F   0  0  0  0  0  0  0  0  0  0  0  0
 10 11  1  0  0  0
 11 12  1  0  0  0
 11  1  1  0  0  0
  1 14  1  0  0  0
 14 16  1  0  0  0
 16 17  2  0  0  0
 17 18  1  0  0  0
 18 19  2  0  0  0
 19 20  1  0  0  0
 20 21  2  0  0  0
 19 22  1  0  0  0
 22 23  1  0  0  0
 22 24  1  0  0  0
 22 25  1  0  0  0
  1  2  1  0  0  0
  2  3  2  0  0  0
  3  4  1  0  0  0
  4  5  2  0  0  0
  5  6  1  0  0  0
  6  7  2  0  0  0
  5  8  1  0  0  0
  8  9  3  0  0  0
 21 16  1  0  0  0
  7  2  1  0  0  0
 12 13  1  0  0  0
 14 15  1  0  0  0
M  END
> <minimizedAffinity>
-7.07801

> <CNNscore>
0.3486037254

> <CNNaffinity>
5.3867216110

> <CNN_VS>
1.8778312206

> <CNNaffinity_variance>
0.2456254959

$$$$
[H]O[C@]([H])(C([H])([H])[H])[C@]([H])(c1c([H])c([H])c(C#N)c([H])c1[H])N([H])c1c([H])c([H])c(C(F)(F)F)c([H])c1[H]


 25 26  0  0  0  0  0  0  0  0999 V2000
    0.4909  -53.1220  -22.3338 C   0  0  0  0  0  0  0  0  0  0  0  0
    0.9576  -52.0231  -21.4129 C   0  0  0  0  0  0  0  0  0  0  0  0
    0.7553  -50.6876  -21.6821 C   0  0  0  0  0  0  0  0  0  0  0  0
    1.1901  -49.6913  -20.8325 C   0  0  0  0  0  0  0  0  0  0  0  0
    1.8529  -49.9994  -19.6667 C   0  0  0  0  0  0  0  0  0  0  0  0
    2.0644  -51.3394  -19.3823 C   0  0  0  0  0  0  0  0  0  0  0  0
    1.6229  -52.3224  -20.2423 C   0  0  0  0  0  0  0  0  0  0  0  0
    2.3095  -48.9645  -18.7663 C   0  0  0  0  0  0  0  0  0  0  0  0
    2.6940  -48.1445  -18.0468 N   0  0  0  0  0  0  0  0  0  0  0  0
   -1.1343  -54.9307  -22.4493 C   0  0  0  0  0  0  0  0  0  0  0  0
   -0.9429  -53.4342  -22.1596 C   0  0  0  0  0  0  0  0  0  0  0  0
   -1.4678  -53.2152  -20.9161 O   0  0  0  0  0  0  0  0  0  0  0  0
   -1.0725  -52.4464  -20.4385 H   0  0  0  0  0  0  0  0  0  0  0  0
    1.0200  -52.9755  -23.6336 N   0  0  0  0  0  0  0  0  0  0  0  0
    2.0853  -52.8335  -23.7012 H   0  0  0  0  0  0  0  0  0  0  0  0
    0.3773  -52.9796  -24.8870 C   0  0  0  0  0  0  0  0  0  0  0  0
    0.6008  -53.9200  -25.8359 C   0  0  0  0  0  0  0  0  0  0  0  0
   -0.0255  -53.8238  -27.0706 C   0  0  0  0  0  0  0  0  0  0  0  0
   -0.8819  -52.7906  -27.3716 C   0  0  0  0  0  0  0  0  0  0  0  0
   -1.1271  -51.8244  -26.4240 C   0  0  0  0  0  0  0  0  0  0  0  0
   -0.5076  -51.9287  -25.2191 C   0  0  0  0  0  0  0  0  0  0  0  0
   -1.4931  -52.7622  -28.7191 C   0  0  0  0  0  0  0  0  0  0  0  0
   -2.8690  -52.5610  -28.5183 F   0  0  0  0  0  0  0  0  0  0  0  0
   -1.3030  -53.9359  -29.4065 F   0  0  0  0  0  0  0  0  0  0  0  0
   -1.0352  -51.6937  -29.4426 F   0  0  0  0  0  0  0  0  0  0  0  0
 10 11  1  0  0  0
 11 12  1  0  0  0
 11  1  1  0  0  0
  1 14  1  0  0  0
 14 16  1  0  0  0
 16 17  2  0  0  0
 17 18  1  0  0  0
 18 19  2  0  0  0
 19 20  1  0  0  0
 20 21  2  0  0  0
 19 22  1  0  0  0
 22 23  1  0  0  0
 22 24  1  0  0  0
 22 25  1  0  0  0
  1  2  1  0  0  0
  2  3  2  0  0  0
  3  4  1  0  0  0
  4  5  2  0  0  0
  5  6  1  0  0  0
  6  7  2  0  0  0
  5  8  1  0  0  0
  8  9  3  0  0  0
 21 16  1  0  0  0
  7  2  1  0  0  0
 12 13  1  0  0  0
 14 15  1  0  0  0
M  END
> <minimizedAffinity>
-7.00836

> <CNNscore>
0.3219313025

> <CNNaffinity>
5.2810835838

> <CNN_VS>
1.7001460791

> <CNNaffinity_variance>
0.1846569180

$$$$
[H]O[C@]([H])(C([H])([H])[H])[C@]([H])(c1c([H])c([H])c(C#N)c([H])c1[H])N([H])c1c([H])c([H])c(C(F)(F)F)c([H])c1[H]


 25 26  0  0  0  0  0  0  0  0999 V2000
   -0.7029  -53.8884  -23.9971 C   0  0  0  0  0  0  0  0  0  0  0  0
    0.2682  -52.8996  -24.5912 C   0  0  0  0  0  0  0  0  0  0  0  0
   -0.1317  -51.8378  -25.3720 C   0  0  0  0  0  0  0  0  0  0  0  0
    0.7674  -50.9417  -25.9124 C   0  0  0  0  0  0  0  0  0  0  0  0
    2.1182  -51.0777  -25.6885 C   0  0  0  0  0  0  0  0  0  0  0  0
    2.5360  -52.1418  -24.9049 C   0  0  0  0  0  0  0  0  0  0  0  0
    1.6240  -53.0280  -24.3723 C   0  0  0  0  0  0  0  0  0  0  0  0
    3.0696  -50.1426  -26.2457 C   0  0  0  0  0  0  0  0  0  0  0  0
    3.8153  -49.3808  -26.6947 N   0  0  0  0  0  0  0  0  0  0  0  0
    0.1671  -55.1344  -25.8988 C   0  0  0  0  0  0  0  0  0  0  0  0
   -1.0076  -55.0035  -24.9175 C   0  0  0  0  0  0  0  0  0  0  0  0
   -1.1700  -56.2364  -24.3487 O   0  0  0  0  0  0  0  0  0  0  0  0
   -1.5785  -56.2179  -23.4497 H   0  0  0  0  0  0  0  0  0  0  0  0
   -0.4103  -54.1608  -22.6439 N   0  0  0  0  0  0  0  0  0  0  0  0
   -0.4243  -55.1974  -22.3527 H   0  0  0  0  0  0  0  0  0  0  0  0
   -0.0995  -53.2877  -21.5831 C   0  0  0  0  0  0  0  0  0  0  0  0
    0.4245  -53.7033  -20.4053 C   0  0  0  0  0  0  0  0  0  0  0  0
    0.6484  -52.7908  -19.3839 C   0  0  0  0  0  0  0  0  0  0  0  0
    0.3539  -51.4550  -19.5265 C   0  0  0  0  0  0  0  0  0  0  0  0
   -0.1769  -51.0077  -20.7138 C   0  0  0  0  0  0  0  0  0  0  0  0
   -0.3924  -51.9105  -21.7063 C   0  0  0  0  0  0  0  0  0  0  0  0
    0.6128  -50.5579  -18.3783 C   0  0  0  0  0  0  0  0  0  0  0  0
    1.7334  -51.0868  -17.7161 F   0  0  0  0  0  0  0  0  0  0  0  0
   -0.4456  -50.5047  -17.5047 F   0  0  0  0  0  0  0  0  0  0  0  0
    0.9569  -49.3030  -18.8044 F   0  0  0  0  0  0  0  0  0  0  0  0
 10 11  1  0  0  0
 11 12  1  0  0  0
 11  1  1  0  0  0
  1 14  1  0  0  0
 14 16  1  0  0  0
 16 17  2  0  0  0
 17 18  1  0  0  0
 18 19  2  0  0  0
 19 20  1  0  0  0
 20 21  2  0  0  0
 19 22  1  0  0  0
 22 23  1  0  0  0
 22 24  1  0  0  0
 22 25  1  0  0  0
  1  2  1  0  0  0
  2  3  2  0  0  0
  3  4  1  0  0  0
  4  5  2  0  0  0
  5  6  1  0  0  0
  6  7  2  0  0  0
  5  8  1  0  0  0
  8  9  3  0  0  0
 21 16  1  0  0  0
  7  2  1  0  0  0
 12 13  1  0  0  0
 14 15  1  0  0  0
M  END
> <minimizedAffinity>
-6.41844

> <CNNscore>
0.2584985495

> <CNNaffinity>
5.5177879333

> <CNN_VS>
1.4263402224

> <CNNaffinity_variance>
0.1517902613

$$$$
[H]O[C@]([H])(C([H])([H])[H])[C@]([H])(c1c([H])c([H])c(C#N)c([H])c1[H])N([H])c1c([H])c([H])c(C(F)(F)F)c([H])c1[H]


 25 26  0  0  0  0  0  0  0  0999 V2000
    2.6381  -49.4768  -18.9356 C   0  0  0  0  0  0  0  0  0  0  0  0
    3.0701  -48.9723  -20.2892 C   0  0  0  0  0  0  0  0  0  0  0  0
    4.0898  -49.5521  -21.0111 C   0  0  0  0  0  0  0  0  0  0  0  0
    4.4778  -49.0790  -22.2477 C   0  0  0  0  0  0  0  0  0  0  0  0
    3.8512  -47.9929  -22.8145 C   0  0  0  0  0  0  0  0  0  0  0  0
    2.8233  -47.3984  -22.0996 C   0  0  0  0  0  0  0  0  0  0  0  0
    2.4481  -47.8843  -20.8652 C   0  0  0  0  0  0  0  0  0  0  0  0
    4.2459  -47.4907  -24.1114 C   0  0  0  0  0  0  0  0  0  0  0  0
    4.5595  -47.0693  -25.1419 N   0  0  0  0  0  0  0  0  0  0  0  0
    2.0599  -48.7927  -16.6720 C   0  0  0  0  0  0  0  0  0  0  0  0
    3.0299  -48.5644  -17.8412 C   0  0  0  0  0  0  0  0  0  0  0  0
    4.2882  -48.7283  -17.3319 O   0  0  0  0  0  0  0  0  0  0  0  0
    4.9610  -49.0132  -17.9964 H   0  0  0  0  0  0  0  0  0  0  0  0
    1.3308  -50.0069  -18.9675 N   0  0  0  0  0  0  0  0  0  0  0  0
    0.6322  -49.5951  -18.2589 H   0  0  0  0  0  0  0  0  0  0  0  0
    0.7714  -51.0089  -19.7843 C   0  0  0  0  0  0  0  0  0  0  0  0
    0.0578  -50.7444  -20.9048 C   0  0  0  0  0  0  0  0  0  0  0  0
   -0.5138  -51.7834  -21.6259 C   0  0  0  0  0  0  0  0  0  0  0  0
   -0.3787  -53.0961  -21.2387 C   0  0  0  0  0  0  0  0  0  0  0  0
    0.3432  -53.3908  -20.1057 C   0  0  0  0  0  0  0  0  0  0  0  0
    0.8975  -52.3652  -19.4074 C   0  0  0  0  0  0  0  0  0  0  0  0
   -1.0351  -54.1364  -22.0615 C   0  0  0  0  0  0  0  0  0  0  0  0
   -0.2499  -55.2935  -21.9251 F   0  0  0  0  0  0  0  0  0  0  0  0
   -1.1037  -53.7900  -23.3887 F   0  0  0  0  0  0  0  0  0  0  0  0
   -2.2776  -54.4376  -21.5712 F   0  0  0  0  0  0  0  0  0  0  0  0
 10 11  1  0  0  0
 11 12  1  0  0  0
 11  1  1  0  0  0
  1 14  1  0  0  0
 14 16  1  0  0  0
 16 17  2  0  0  0
 17 18  1  0  0  0
 18 19  2  0  0  0
 19 20  1  0  0  0
 20 21  2  0  0  0
 19 22  1  0  0  0
 22 23  1  0  0  0
 22 24  1  0  0  0
 22 25  1  0  0  0
  1  2  1  0  0  0
  2  3  2  0  0  0
  3  4  1  0  0  0
  4  5  2  0  0  0
  5  6  1  0  0  0
  6  7  2  0  0  0
  5  8  1  0  0  0
  8  9  3  0  0  0
 21 16  1  0  0  0
  7  2  1  0  0  0
 12 13  1  0  0  0
 14 15  1  0  0  0
M  END
> <minimizedAffinity>
-5.37833

> <CNNscore>
0.2515669465

> <CNNaffinity>
4.7001509666

> <CNN_VS>
1.1824026108

> <CNNaffinity_variance>
0.2918685377

$$$$
[H]O[C@]([H])(C([H])([H])[H])[C@]([H])(c1c([H])c([H])c(C#N)c([H])c1[H])N([H])c1c([H])c([H])c(C(F)(F)F)c([H])c1[H]


 25 26  0  0  0  0  0  0  0  0999 V2000
   -0.4041  -53.3776  -23.1590 C   0  0  0  0  0  0  0  0  0  0  0  0
   -0.3528  -53.2387  -24.6595 C   0  0  0  0  0  0  0  0  0  0  0  0
    0.3778  -54.0860  -25.4629 C   0  0  0  0  0  0  0  0  0  0  0  0
    0.4190  -53.9463  -26.8349 C   0  0  0  0  0  0  0  0  0  0  0  0
   -0.2787  -52.9394  -27.4615 C   0  0  0  0  0  0  0  0  0  0  0  0
   -1.0183  -52.0784  -26.6661 C   0  0  0  0  0  0  0  0  0  0  0  0
   -1.0487  -52.2324  -25.2964 C   0  0  0  0  0  0  0  0  0  0  0  0
   -0.2468  -52.7855  -28.8987 C   0  0  0  0  0  0  0  0  0  0  0  0
   -0.2356  -52.6775  -30.0502 N   0  0  0  0  0  0  0  0  0  0  0  0
   -1.6549  -54.4494  -21.3665 C   0  0  0  0  0  0  0  0  0  0  0  0
   -0.9828  -54.6680  -22.7306 C   0  0  0  0  0  0  0  0  0  0  0  0
   -1.9387  -55.2081  -23.5457 O   0  0  0  0  0  0  0  0  0  0  0  0
   -1.8010  -55.0283  -24.5070 H   0  0  0  0  0  0  0  0  0  0  0  0
    0.7777  -52.9064  -22.5491 N   0  0  0  0  0  0  0  0  0  0  0  0
    1.4294  -53.6549  -22.1312 H   0  0  0  0  0  0  0  0  0  0  0  0
    1.2603  -51.5931  -22.3862 C   0  0  0  0  0  0  0  0  0  0  0  0
    0.7286  -50.7072  -21.5103 C   0  0  0  0  0  0  0  0  0  0  0  0
    1.2198  -49.4106  -21.4490 C   0  0  0  0  0  0  0  0  0  0  0  0
    2.2466  -48.9843  -22.2586 C   0  0  0  0  0  0  0  0  0  0  0  0
    2.8049  -49.8657  -23.1548 C   0  0  0  0  0  0  0  0  0  0  0  0
    2.3152  -51.1322  -23.2063 C   0  0  0  0  0  0  0  0  0  0  0  0
    2.6954  -47.5797  -22.1335 C   0  0  0  0  0  0  0  0  0  0  0  0
    2.6815  -47.2875  -20.7593 F   0  0  0  0  0  0  0  0  0  0  0  0
    1.8669  -46.7034  -22.7908 F   0  0  0  0  0  0  0  0  0  0  0  0
    3.9896  -47.4389  -22.5581 F   0  0  0  0  0  0  0  0  0  0  0  0
 10 11  1  0  0  0
 11 12  1  0  0  0
 11  1  1  0  0  0
  1 14  1  0  0  0
 14 16  1  0  0  0
 16 17  2  0  0  0
 17 18  1  0  0  0
 18 19  2  0  0  0
 19 20  1  0  0  0
 20 21  2  0  0  0
 19 22  1  0  0  0
 22 23  1  0  0  0
 22 24  1  0  0  0
 22 25  1  0  0  0
  1  2  1  0  0  0
  2  3  2  0  0  0
  3  4  1  0  0  0
  4  5  2  0  0  0
  5  6  1  0  0  0
  6  7  2  0  0  0
  5  8  1  0  0  0
  8  9  3  0  0  0
 21 16  1  0  0  0
  7  2  1  0  0  0
 12 13  1  0  0  0
 14 15  1  0  0  0
M  END
> <minimizedAffinity>
-7.11362

> <CNNscore>
0.2446164638

> <CNNaffinity>
5.4748773575

> <CNN_VS>
1.3392450809

> <CNNaffinity_variance>
0.1184995994

$$$$
[H]O[C@]([H])(C([H])([H])[H])[C@]([H])(c1c([H])c([H])c(C#N)c([H])c1[H])N([H])c1c([H])c([H])c(C(F)(F)F)c([H])c1[H]


 25 26  0  0  0  0  0  0  0  0999 V2000
   -0.8105  -51.8304  -17.4454 C   0  0  0  0  0  0  0  0  0  0  0  0
   -1.9815  -52.0263  -16.5160 C   0  0  0  0  0  0  0  0  0  0  0  0
   -2.0785  -51.3969  -15.2948 C   0  0  0  0  0  0  0  0  0  0  0  0
   -3.1541  -51.5870  -14.4519 C   0  0  0  0  0  0  0  0  0  0  0  0
   -4.1858  -52.4261  -14.8051 C   0  0  0  0  0  0  0  0  0  0  0  0
   -4.1021  -53.0671  -16.0312 C   0  0  0  0  0  0  0  0  0  0  0  0
   -3.0202  -52.8656  -16.8615 C   0  0  0  0  0  0  0  0  0  0  0  0
   -5.3202  -52.6301  -13.9324 C   0  0  0  0  0  0  0  0  0  0  0  0
   -6.2226  -52.8134  -13.2324 N   0  0  0  0  0  0  0  0  0  0  0  0
    0.1918  -49.7141  -16.7802 C   0  0  0  0  0  0  0  0  0  0  0  0
    0.3601  -51.2410  -16.7628 C   0  0  0  0  0  0  0  0  0  0  0  0
    0.5424  -51.5908  -15.4536 O   0  0  0  0  0  0  0  0  0  0  0  0
    0.2624  -52.5129  -15.2372 H   0  0  0  0  0  0  0  0  0  0  0  0
   -0.6335  -52.9357  -18.3045 N   0  0  0  0  0  0  0  0  0  0  0  0
   -0.5192  -53.8952  -17.8292 H   0  0  0  0  0  0  0  0  0  0  0  0
   -0.5756  -52.9994  -19.7105 C   0  0  0  0  0  0  0  0  0  0  0  0
   -1.2701  -53.9013  -20.4446 C   0  0  0  0  0  0  0  0  0  0  0  0
   -1.1154  -53.9417  -21.8233 C   0  0  0  0  0  0  0  0  0  0  0  0
   -0.2685  -53.0830  -22.4842 C   0  0  0  0  0  0  0  0  0  0  0  0
    0.4460  -52.1564  -21.7613 C   0  0  0  0  0  0  0  0  0  0  0  0
    0.2869  -52.1268  -20.4121 C   0  0  0  0  0  0  0  0  0  0  0  0
   -0.1567  -53.2088  -23.9545 C   0  0  0  0  0  0  0  0  0  0  0  0
   -0.8412  -54.3869  -24.2975 F   0  0  0  0  0  0  0  0  0  0  0  0
    1.1471  -53.3041  -24.3754 F   0  0  0  0  0  0  0  0  0  0  0  0
   -0.7985  -52.1767  -24.5851 F   0  0  0  0  0  0  0  0  0  0  0  0
 10 11  1  0  0  0
 11 12  1  0  0  0
 11  1  1  0  0  0
  1 14  1  0  0  0
 14 16  1  0  0  0
 16 17  2  0  0  0
 17 18  1  0  0  0
 18 19  2  0  0  0
 19 20  1  0  0  0
 20 21  2  0  0  0
 19 22  1  0  0  0
 22 23  1  0  0  0
 22 24  1  0  0  0
 22 25  1  0  0  0
  1  2  1  0  0  0
  2  3  2  0  0  0
  3  4  1  0  0  0
  4  5  2  0  0  0
  5  6  1  0  0  0
  6  7  2  0  0  0
  5  8  1  0  0  0
  8  9  3  0  0  0
 21 16  1  0  0  0
  7  2  1  0  0  0
 12 13  1  0  0  0
 14 15  1  0  0  0
M  END
> <minimizedAffinity>
-6.79006

> <CNNscore>
0.2416646779

> <CNNaffinity>
4.9093475342

> <CNN_VS>
1.1864159107

> <CNNaffinity_variance>
0.1459996402

$$$$
[H]O[C@]([H])(C([H])([H])[H])[C@]([H])(c1c([H])c([H])c(C#N)c([H])c1[H])N([H])c1c([H])c([H])c(C(F)(F)F)c([H])c1[H]


 25 26  0  0  0  0  0  0  0  0999 V2000
    3.0888  -48.1714  -19.8076 C   0  0  0  0  0  0  0  0  0  0  0  0
    3.7451  -49.0618  -20.8323 C   0  0  0  0  0  0  0  0  0  0  0  0
    3.5727  -48.8923  -22.1882 C   0  0  0  0  0  0  0  0  0  0  0  0
    4.1766  -49.7160  -23.1157 C   0  0  0  0  0  0  0  0  0  0  0  0
    4.9857  -50.7541  -22.7145 C   0  0  0  0  0  0  0  0  0  0  0  0
    5.1684  -50.9376  -21.3529 C   0  0  0  0  0  0  0  0  0  0  0  0
    4.5576  -50.1049  -20.4396 C   0  0  0  0  0  0  0  0  0  0  0  0
    5.6274  -51.6213  -23.6770 C   0  0  0  0  0  0  0  0  0  0  0  0
    6.1579  -52.3032  -24.4461 N   0  0  0  0  0  0  0  0  0  0  0  0
    3.3175  -46.0708  -18.5988 C   0  0  0  0  0  0  0  0  0  0  0  0
    3.4668  -46.7519  -19.9677 C   0  0  0  0  0  0  0  0  0  0  0  0
    4.7468  -46.5046  -20.3802 O   0  0  0  0  0  0  0  0  0  0  0  0
    5.1110  -47.1813  -21.0007 H   0  0  0  0  0  0  0  0  0  0  0  0
    1.7349  -48.5143  -19.6067 N   0  0  0  0  0  0  0  0  0  0  0  0
    1.0965  -47.7334  -19.2295 H   0  0  0  0  0  0  0  0  0  0  0  0
    1.0607  -49.7332  -19.8165 C   0  0  0  0  0  0  0  0  0  0  0  0
    0.4622  -50.0618  -20.9863 C   0  0  0  0  0  0  0  0  0  0  0  0
   -0.2351  -51.2565  -21.0984 C   0  0  0  0  0  0  0  0  0  0  0  0
   -0.3417  -52.1362  -20.0467 C   0  0  0  0  0  0  0  0  0  0  0  0
    0.2593  -51.8264  -18.8490 C   0  0  0  0  0  0  0  0  0  0  0  0
    0.9386  -50.6536  -18.7509 C   0  0  0  0  0  0  0  0  0  0  0  0
   -1.1174  -53.3794  -20.2540 C   0  0  0  0  0  0  0  0  0  0  0  0
   -0.1766  -54.4217  -20.3027 F   0  0  0  0  0  0  0  0  0  0  0  0
   -1.8341  -53.3617  -21.4254 F   0  0  0  0  0  0  0  0  0  0  0  0
   -1.9358  -53.6305  -19.1853 F   0  0  0  0  0  0  0  0  0  0  0  0
 10 11  1  0  0  0
 11 12  1  0  0  0
 11  1  1  0  0  0
  1 14  1  0  0  0
 14 16  1  0  0  0
 16 17  2  0  0  0
 17 18  1  0  0  0
 18 19  2  0  0  0
 19 20  1  0  0  0
 20 21  2  0  0  0
 19 22  1  0  0  0
 22 23  1  0  0  0
 22 24  1  0  0  0
 22 25  1  0  0  0
  1  2  1  0  0  0
  2  3  2  0  0  0
  3  4  1  0  0  0
  4  5  2  0  0  0
  5  6  1  0  0  0
  6  7  2  0  0  0
  5  8  1  0  0  0
  8  9  3  0  0  0
 21 16  1  0  0  0
  7  2  1  0  0  0
 12 13  1  0  0  0
 14 15  1  0  0  0
M  END
> <minimizedAffinity>
-5.37792

> <CNNscore>
0.2414628565

> <CNNaffinity>
4.7588710785

> <CNN_VS>
1.1490906477

> <CNNaffinity_variance>
0.1302095354

$$$$
[H]c1c(N([H])C(=O)c2c([H])c([H])c(Cl)c([H])c2Cl)sc(S(=O)(=O)N([H])[H])c1[H]


 23 24  0  0  0  0  0  0  0  0999 V2000
    0.5698  -52.7648  -21.2925 N   0  0  0  0  0  0  0  0  0  0  0  0
   -0.3617  -52.4507  -22.3452 C   0  0  0  0  0  0  0  0  0  0  0  0
   -1.4236  -51.8500  -22.0363 O   0  0  0  0  0  0  0  0  0  0  0  0
    1.4592  -53.2564  -21.4789 H   0  0  0  0  0  0  0  0  0  0  0  0
   -0.1004  -52.8074  -23.7198 C   0  0  0  0  0  0  0  0  0  0  0  0
    0.4901  -51.9155  -24.5994 C   0  0  0  0  0  0  0  0  0  0  0  0
    0.7434  -52.2514  -25.9188 C   0  0  0  0  0  0  0  0  0  0  0  0
    0.4127  -53.4968  -26.4038 C   0  0  0  0  0  0  0  0  0  0  0  0
    0.7137  -53.9697  -28.0687 Cl  0  0  0  0  0  0  0  0  0  0  0  0
   -0.1777  -54.4000  -25.5393 C   0  0  0  0  0  0  0  0  0  0  0  0
   -0.4250  -54.0504  -24.2230 C   0  0  0  0  0  0  0  0  0  0  0  0
   -1.1744  -55.1812  -23.1047 Cl  0  0  0  0  0  0  0  0  0  0  0  0
    0.0280  -51.3129  -17.5964 C   0  0  0  0  0  0  0  0  0  0  0  0
   -0.6816  -52.4548  -17.8446 C   0  0  0  0  0  0  0  0  0  0  0  0
   -0.5607  -53.0121  -19.0597 C   0  0  0  0  0  0  0  0  0  0  0  0
    0.2644  -52.3908  -19.9521 C   0  0  0  0  0  0  0  0  0  0  0  0
    0.8463  -51.0510  -19.0739 S   0  0  0  0  0  0  0  0  0  0  0  0
    0.0766  -48.6751  -16.4637 N   0  0  0  0  0  0  0  0  0  0  0  0
    0.0722  -50.3589  -16.1044 S   0  0  0  0  0  0  0  0  0  0  0  0
   -1.2312  -50.6902  -15.3882 O   0  0  0  0  0  0  0  0  0  0  0  0
    1.2483  -50.7800  -15.3120 O   0  0  0  0  0  0  0  0  0  0  0  0
    0.5655  -48.5427  -17.3923 H   0  0  0  0  0  0  0  0  0  0  0  0
   -0.9201  -48.3763  -16.5930 H   0  0  0  0  0  0  0  0  0  0  0  0
 18 19  1  0  0  0
 19 20  2  0  0  0
 19 21  2  0  0  0
 19 13  1  0  0  0
 13 14  2  0  0  0
 14 15  1  0  0  0
 15 16  2  0  0  0
 16  1  1  0  0  0
  1  2  1  0  0  0
  2  3  2  0  0  0
  2  5  1  0  0  0
  5  6  2  0  0  0
  6  7  1  0  0  0
  7  8  2  0  0  0
  8  9  1  0  0  0
  8 10  1  0  0  0
 10 11  2  0  0  0
 11 12  1  0  0  0
 16 17  1  0  0  0
 17 13  1  0  0  0
 11  5  1  0  0  0
 18 22  1  0  0  0
 18 23  1  0  0  0
  1  4  1  0  0  0
M  END
> <minimizedAffinity>
-6.54021

> <CNNscore>
0.3626375198

> <CNNaffinity>
5.2962579727

> <CNN_VS>
1.9206218719

> <CNNaffinity_variance>
0.1970396787

$$$$
[H]c1c(N([H])C(=O)c2c([H])c([H])c(Cl)c([H])c2Cl)sc(S(=O)(=O)N([H])[H])c1[H]


 23 24  0  0  0  0  0  0  0  0999 V2000
   -0.4527  -53.3695  -19.7899 N   0  0  0  0  0  0  0  0  0  0  0  0
   -0.6104  -52.6914  -21.0508 C   0  0  0  0  0  0  0  0  0  0  0  0
   -0.8637  -51.4588  -21.0325 O   0  0  0  0  0  0  0  0  0  0  0  0
   -0.2440  -54.3798  -19.7355 H   0  0  0  0  0  0  0  0  0  0  0  0
   -0.4847  -53.3903  -22.3081 C   0  0  0  0  0  0  0  0  0  0  0  0
   -1.0737  -54.6272  -22.5107 C   0  0  0  0  0  0  0  0  0  0  0  0
   -0.9570  -55.3027  -23.7140 C   0  0  0  0  0  0  0  0  0  0  0  0
   -0.2437  -54.7601  -24.7593 C   0  0  0  0  0  0  0  0  0  0  0  0
   -0.0670  -55.5778  -26.3040 Cl  0  0  0  0  0  0  0  0  0  0  0  0
    0.3510  -53.5256  -24.5744 C   0  0  0  0  0  0  0  0  0  0  0  0
    0.2260  -52.8619  -23.3661 C   0  0  0  0  0  0  0  0  0  0  0  0
    0.9728  -51.2916  -23.1067 Cl  0  0  0  0  0  0  0  0  0  0  0  0
   -0.4557  -50.9946  -16.5615 C   0  0  0  0  0  0  0  0  0  0  0  0
   -1.3648  -52.0132  -16.4916 C   0  0  0  0  0  0  0  0  0  0  0  0
   -1.4336  -52.8598  -17.5310 C   0  0  0  0  0  0  0  0  0  0  0  0
   -0.5866  -52.6337  -18.5773 C   0  0  0  0  0  0  0  0  0  0  0  0
    0.2789  -51.2510  -18.0832 S   0  0  0  0  0  0  0  0  0  0  0  0
    1.3102  -48.8832  -15.7448 N   0  0  0  0  0  0  0  0  0  0  0  0
   -0.1365  -49.7333  -15.3592 S   0  0  0  0  0  0  0  0  0  0  0  0
   -1.3063  -48.7654  -15.4858 O   0  0  0  0  0  0  0  0  0  0  0  0
   -0.0943  -50.3604  -14.0200 O   0  0  0  0  0  0  0  0  0  0  0  0
    1.9588  -49.5551  -16.2416 H   0  0  0  0  0  0  0  0  0  0  0  0
    1.0615  -48.1292  -16.4297 H   0  0  0  0  0  0  0  0  0  0  0  0
 18 19  1  0  0  0
 19 20  2  0  0  0
 19 21  2  0  0  0
 19 13  1  0  0  0
 13 14  2  0  0  0
 14 15  1  0  0  0
 15 16  2  0  0  0
 16  1  1  0  0  0
  1  2  1  0  0  0
  2  3  2  0  0  0
  2  5  1  0  0  0
  5  6  2  0  0  0
  6  7  1  0  0  0
  7  8  2  0  0  0
  8  9  1  0  0  0
  8 10  1  0  0  0
 10 11  2  0  0  0
 11 12  1  0  0  0
 16 17  1  0  0  0
 17 13  1  0  0  0
 11  5  1  0  0  0
 18 22  1  0  0  0
 18 23  1  0  0  0
  1  4  1  0  0  0
M  END
> <minimizedAffinity>
-6.17396

> <CNNscore>
0.3475887179

> <CNNaffinity>
5.3635253906

> <CNN_VS>
1.8643009663

> <CNNaffinity_variance>
0.1267575473

$$$$
[H]c1c(N([H])C(=O)c2c([H])c([H])c(Cl)c([H])c2Cl)sc(S(=O)(=O)N([H])[H])c1[H]


 23 24  0  0  0  0  0  0  0  0999 V2000
   -0.1714  -52.0112  -22.6849 N   0  0  0  0  0  0  0  0  0  0  0  0
    0.8016  -51.9726  -21.6235 C   0  0  0  0  0  0  0  0  0  0  0  0
    2.0188  -52.0516  -21.9332 O   0  0  0  0  0  0  0  0  0  0  0  0
   -1.1857  -51.9510  -22.4984 H   0  0  0  0  0  0  0  0  0  0  0  0
    0.4089  -51.8474  -20.2396 C   0  0  0  0  0  0  0  0  0  0  0  0
    0.7909  -50.7581  -19.4744 C   0  0  0  0  0  0  0  0  0  0  0  0
    0.4176  -50.6321  -18.1468 C   0  0  0  0  0  0  0  0  0  0  0  0
   -0.3540  -51.5964  -17.5382 C   0  0  0  0  0  0  0  0  0  0  0  0
   -0.8528  -51.4816  -15.8577 Cl  0  0  0  0  0  0  0  0  0  0  0  0
   -0.7446  -52.6909  -18.2874 C   0  0  0  0  0  0  0  0  0  0  0  0
   -0.3639  -52.8037  -19.6135 C   0  0  0  0  0  0  0  0  0  0  0  0
   -0.8479  -54.1855  -20.5867 Cl  0  0  0  0  0  0  0  0  0  0  0  0
    0.9336  -52.8589  -26.4429 C   0  0  0  0  0  0  0  0  0  0  0  0
    1.1281  -51.5504  -26.0980 C   0  0  0  0  0  0  0  0  0  0  0  0
    0.7853  -51.1758  -24.8554 C   0  0  0  0  0  0  0  0  0  0  0  0
    0.2685  -52.1358  -24.0342 C   0  0  0  0  0  0  0  0  0  0  0  0
    0.2752  -53.5295  -25.0154 S   0  0  0  0  0  0  0  0  0  0  0  0
    0.5648  -52.7674  -29.2888 N   0  0  0  0  0  0  0  0  0  0  0  0
    1.2851  -53.6421  -27.9925 S   0  0  0  0  0  0  0  0  0  0  0  0
    2.7989  -53.5550  -28.1417 O   0  0  0  0  0  0  0  0  0  0  0  0
    0.8272  -55.0471  -27.9236 O   0  0  0  0  0  0  0  0  0  0  0  0
   -0.3147  -52.3086  -28.9215 H   0  0  0  0  0  0  0  0  0  0  0  0
    1.2256  -51.9991  -29.5582 H   0  0  0  0  0  0  0  0  0  0  0  0
 18 19  1  0  0  0
 19 20  2  0  0  0
 19 21  2  0  0  0
 19 13  1  0  0  0
 13 14  2  0  0  0
 14 15  1  0  0  0
 15 16  2  0  0  0
 16  1  1  0  0  0
  1  2  1  0  0  0
  2  3  2  0  0  0
  2  5  1  0  0  0
  5  6  2  0  0  0
  6  7  1  0  0  0
  7  8  2  0  0  0
  8  9  1  0  0  0
  8 10  1  0  0  0
 10 11  2  0  0  0
 11 12  1  0  0  0
 16 17  1  0  0  0
 17 13  1  0  0  0
 11  5  1  0  0  0
 18 22  1  0  0  0
 18 23  1  0  0  0
  1  4  1  0  0  0
M  END
> <minimizedAffinity>
-7.22849

> <CNNscore>
0.3215137422

> <CNNaffinity>
5.6990504265

> <CNN_VS>
1.8323230743

> <CNNaffinity_variance>
0.1841484606

$$$$
[H]c1c(N([H])C(=O)c2c([H])c([H])c(Cl)c([H])c2Cl)sc(S(=O)(=O)N([H])[H])c1[H]


 23 24  0  0  0  0  0  0  0  0999 V2000
   -0.4303  -51.6464  -21.3653 N   0  0  0  0  0  0  0  0  0  0  0  0
    0.2600  -52.2284  -20.2431 C   0  0  0  0  0  0  0  0  0  0  0  0
    1.1730  -53.0623  -20.4773 O   0  0  0  0  0  0  0  0  0  0  0  0
   -1.1890  -50.9562  -21.2416 H   0  0  0  0  0  0  0  0  0  0  0  0
   -0.0732  -51.8763  -18.8829 C   0  0  0  0  0  0  0  0  0  0  0  0
   -0.8919  -52.6799  -18.1069 C   0  0  0  0  0  0  0  0  0  0  0  0
   -1.2152  -52.3479  -16.8019 C   0  0  0  0  0  0  0  0  0  0  0  0
   -0.7277  -51.1955  -16.2275 C   0  0  0  0  0  0  0  0  0  0  0  0
   -1.1091  -50.7315  -14.5767 Cl  0  0  0  0  0  0  0  0  0  0  0  0
    0.0913  -50.3814  -16.9879 C   0  0  0  0  0  0  0  0  0  0  0  0
    0.4061  -50.7258  -18.2911 C   0  0  0  0  0  0  0  0  0  0  0  0
    1.4452  -49.7072  -19.2779 Cl  0  0  0  0  0  0  0  0  0  0  0  0
    0.2704  -53.1098  -25.0300 C   0  0  0  0  0  0  0  0  0  0  0  0
    0.9980  -51.9893  -24.7405 C   0  0  0  0  0  0  0  0  0  0  0  0
    0.8270  -51.4298  -23.5325 C   0  0  0  0  0  0  0  0  0  0  0  0
   -0.0631  -52.0278  -22.6880 C   0  0  0  0  0  0  0  0  0  0  0  0
   -0.6346  -53.3494  -23.6001 S   0  0  0  0  0  0  0  0  0  0  0  0
   -0.0254  -55.7210  -26.1865 N   0  0  0  0  0  0  0  0  0  0  0  0
    0.2804  -54.0608  -26.5246 S   0  0  0  0  0  0  0  0  0  0  0  0
   -0.8850  -53.5184  -27.3426 O   0  0  0  0  0  0  0  0  0  0  0  0
    1.5724  -53.8432  -27.2115 O   0  0  0  0  0  0  0  0  0  0  0  0
    0.3551  -55.9312  -25.2220 H   0  0  0  0  0  0  0  0  0  0  0  0
   -1.0652  -55.8493  -26.1439 H   0  0  0  0  0  0  0  0  0  0  0  0
 18 19  1  0  0  0
 19 20  2  0  0  0
 19 21  2  0  0  0
 19 13  1  0  0  0
 13 14  2  0  0  0
 14 15  1  0  0  0
 15 16  2  0  0  0
 16  1  1  0  0  0
  1  2  1  0  0  0
  2  3  2  0  0  0
  2  5  1  0  0  0
  5  6  2  0  0  0
  6  7  1  0  0  0
  7  8  2  0  0  0
  8  9  1  0  0  0
  8 10  1  0  0  0
 10 11  2  0  0  0
 11 12  1  0  0  0
 16 17  1  0  0  0
 17 13  1  0  0  0
 11  5  1  0  0  0
 18 22  1  0  0  0
 18 23  1  0  0  0
  1  4  1  0  0  0
M  END
> <minimizedAffinity>
-6.75356

> <CNNscore>
0.3027690649

> <CNNaffinity>
5.5751180649

> <CNN_VS>
1.6879732609

> <CNNaffinity_variance>
0.0833877027

$$$$
[H]c1c(N([H])C(=O)c2c([H])c([H])c(Cl)c([H])c2Cl)sc(S(=O)(=O)N([H])[H])c1[H]


 23 24  0  0  0  0  0  0  0  0999 V2000
    0.8031  -52.3390  -21.3790 N   0  0  0  0  0  0  0  0  0  0  0  0
   -0.2410  -52.3064  -22.3706 C   0  0  0  0  0  0  0  0  0  0  0  0
   -1.3799  -51.9032  -22.0181 O   0  0  0  0  0  0  0  0  0  0  0  0
    1.7594  -52.6591  -21.6031 H   0  0  0  0  0  0  0  0  0  0  0  0
   -0.0048  -52.7205  -23.7336 C   0  0  0  0  0  0  0  0  0  0  0  0
    0.5688  -51.8663  -24.6607 C   0  0  0  0  0  0  0  0  0  0  0  0
    0.7979  -52.2574  -25.9692 C   0  0  0  0  0  0  0  0  0  0  0  0
    0.4591  -53.5220  -26.3954 C   0  0  0  0  0  0  0  0  0  0  0  0
    0.7297  -54.0645  -28.0442 Cl  0  0  0  0  0  0  0  0  0  0  0  0
   -0.1146  -54.3881  -25.4830 C   0  0  0  0  0  0  0  0  0  0  0  0
   -0.3378  -53.9835  -24.1781 C   0  0  0  0  0  0  0  0  0  0  0  0
   -1.0658  -55.0662  -22.9997 Cl  0  0  0  0  0  0  0  0  0  0  0  0
   -0.2947  -51.5803  -17.5998 C   0  0  0  0  0  0  0  0  0  0  0  0
    0.5527  -50.6429  -18.1216 C   0  0  0  0  0  0  0  0  0  0  0  0
    0.9729  -50.8166  -19.3845 C   0  0  0  0  0  0  0  0  0  0  0  0
    0.5180  -51.9196  -20.0476 C   0  0  0  0  0  0  0  0  0  0  0  0
   -0.4799  -52.6807  -18.8944 S   0  0  0  0  0  0  0  0  0  0  0  0
   -0.0476  -52.5758  -14.9182 N   0  0  0  0  0  0  0  0  0  0  0  0
   -1.0106  -51.6221  -15.9799 S   0  0  0  0  0  0  0  0  0  0  0  0
   -0.9680  -50.1784  -15.4948 O   0  0  0  0  0  0  0  0  0  0  0  0
   -2.4008  -52.1152  -16.0930 O   0  0  0  0  0  0  0  0  0  0  0  0
    0.4221  -53.3286  -15.4942 H   0  0  0  0  0  0  0  0  0  0  0  0
    0.7102  -51.9589  -14.5378 H   0  0  0  0  0  0  0  0  0  0  0  0
 18 19  1  0  0  0
 19 20  2  0  0  0
 19 21  2  0  0  0
 19 13  1  0  0  0
 13 14  2  0  0  0
 14 15  1  0  0  0
 15 16  2  0  0  0
 16  1  1  0  0  0
  1  2  1  0  0  0
  2  3  2  0  0  0
  2  5  1  0  0  0
  5  6  2  0  0  0
  6  7  1  0  0  0
  7  8  2  0  0  0
  8  9  1  0  0  0
  8 10  1  0  0  0
 10 11  2  0  0  0
 11 12  1  0  0  0
 16 17  1  0  0  0
 17 13  1  0  0  0
 11  5  1  0  0  0
 18 22  1  0  0  0
 18 23  1  0  0  0
  1  4  1  0  0  0
M  END
> <minimizedAffinity>
-6.76983

> <CNNscore>
0.2661168575

> <CNNaffinity>
5.2316780090

> <CNN_VS>
1.3922376633

> <CNNaffinity_variance>
0.2253651321

$$$$
[H]c1c(N([H])C(=O)c2c([H])c([H])c(Cl)c([H])c2Cl)sc(S(=O)(=O)N([H])[H])c1[H]


 23 24  0  0  0  0  0  0  0  0999 V2000
    2.4606  -51.8396  -22.1026 N   0  0  0  0  0  0  0  0  0  0  0  0
    1.3284  -51.2093  -22.7314 C   0  0  0  0  0  0  0  0  0  0  0  0
    0.7726  -50.2541  -22.1293 O   0  0  0  0  0  0  0  0  0  0  0  0
    2.9613  -52.6283  -22.5437 H   0  0  0  0  0  0  0  0  0  0  0  0
    0.8327  -51.6481  -24.0147 C   0  0  0  0  0  0  0  0  0  0  0  0
    1.3137  -51.1128  -25.1980 C   0  0  0  0  0  0  0  0  0  0  0  0
    0.8425  -51.5293  -26.4319 C   0  0  0  0  0  0  0  0  0  0  0  0
   -0.1299  -52.4998  -26.5228 C   0  0  0  0  0  0  0  0  0  0  0  0
   -0.7594  -53.0611  -28.0639 Cl  0  0  0  0  0  0  0  0  0  0  0  0
   -0.6215  -53.0452  -25.3512 C   0  0  0  0  0  0  0  0  0  0  0  0
   -0.1412  -52.6191  -24.1249 C   0  0  0  0  0  0  0  0  0  0  0  0
   -0.7503  -53.2973  -22.6215 Cl  0  0  0  0  0  0  0  0  0  0  0  0
    3.3333  -50.7822  -18.3366 C   0  0  0  0  0  0  0  0  0  0  0  0
    4.1861  -50.2526  -19.2646 C   0  0  0  0  0  0  0  0  0  0  0  0
    3.9691  -50.5542  -20.5544 C   0  0  0  0  0  0  0  0  0  0  0  0
    2.9102  -51.3685  -20.8355 C   0  0  0  0  0  0  0  0  0  0  0  0
    2.2494  -51.6893  -19.2975 S   0  0  0  0  0  0  0  0  0  0  0  0
    4.0084  -49.0232  -16.1701 N   0  0  0  0  0  0  0  0  0  0  0  0
    3.3645  -50.5669  -16.5785 S   0  0  0  0  0  0  0  0  0  0  0  0
    1.9019  -50.6011  -16.1530 O   0  0  0  0  0  0  0  0  0  0  0  0
    4.1289  -51.6840  -15.9816 O   0  0  0  0  0  0  0  0  0  0  0  0
    4.7045  -48.7534  -16.9195 H   0  0  0  0  0  0  0  0  0  0  0  0
    3.2224  -48.3306  -16.2137 H   0  0  0  0  0  0  0  0  0  0  0  0
 18 19  1  0  0  0
 19 20  2  0  0  0
 19 21  2  0  0  0
 19 13  1  0  0  0
 13 14  2  0  0  0
 14 15  1  0  0  0
 15 16  2  0  0  0
 16  1  1  0  0  0
  1  2  1  0  0  0
  2  3  2  0  0  0
  2  5  1  0  0  0
  5  6  2  0  0  0
  6  7  1  0  0  0
  7  8  2  0  0  0
  8  9  1  0  0  0
  8 10  1  0  0  0
 10 11  2  0  0  0
 11 12  1  0  0  0
 16 17  1  0  0  0
 17 13  1  0  0  0
 11  5  1  0  0  0
 18 22  1  0  0  0
 18 23  1  0  0  0
  1  4  1  0  0  0
M  END
> <minimizedAffinity>
-6.11238

> <CNNscore>
0.2638601959

> <CNNaffinity>
5.2504019737

> <CNN_VS>
1.3853720427

> <CNNaffinity_variance>
0.2341021299

$$$$
[H]c1c(N([H])C(=O)c2c([H])c([H])c(Cl)c([H])c2Cl)sc(S(=O)(=O)N([H])[H])c1[H]


 23 24  0  0  0  0  0  0  0  0999 V2000
   -0.2673  -52.4097  -22.8334 N   0  0  0  0  0  0  0  0  0  0  0  0
    0.7785  -52.2774  -21.8518 C   0  0  0  0  0  0  0  0  0  0  0  0
    1.9547  -52.5614  -22.1979 O   0  0  0  0  0  0  0  0  0  0  0  0
   -1.2531  -52.1927  -22.6138 H   0  0  0  0  0  0  0  0  0  0  0  0
    0.5026  -51.8334  -20.5058 C   0  0  0  0  0  0  0  0  0  0  0  0
   -0.0777  -52.6743  -19.5707 C   0  0  0  0  0  0  0  0  0  0  0  0
   -0.3448  -52.2546  -18.2784 C   0  0  0  0  0  0  0  0  0  0  0  0
   -0.0385  -50.9736  -17.8770 C   0  0  0  0  0  0  0  0  0  0  0  0
   -0.3578  -50.3947  -16.2494 Cl  0  0  0  0  0  0  0  0  0  0  0  0
    0.5415  -50.1206  -18.7977 C   0  0  0  0  0  0  0  0  0  0  0  0
    0.8027  -50.5537  -20.0862 C   0  0  0  0  0  0  0  0  0  0  0  0
    1.5394  -49.4880  -21.2746 Cl  0  0  0  0  0  0  0  0  0  0  0  0
    0.8964  -53.2051  -26.5852 C   0  0  0  0  0  0  0  0  0  0  0  0
    0.1552  -54.2047  -26.0192 C   0  0  0  0  0  0  0  0  0  0  0  0
   -0.2782  -54.0240  -24.7617 C   0  0  0  0  0  0  0  0  0  0  0  0
    0.0580  -52.8519  -24.1481 C   0  0  0  0  0  0  0  0  0  0  0  0
    0.9661  -52.0378  -25.3388 S   0  0  0  0  0  0  0  0  0  0  0  0
    3.0166  -52.1773  -28.2259 N   0  0  0  0  0  0  0  0  0  0  0  0
    1.5997  -53.1552  -28.2104 S   0  0  0  0  0  0  0  0  0  0  0  0
    2.0094  -54.5928  -28.5049 O   0  0  0  0  0  0  0  0  0  0  0  0
    0.5650  -52.6819  -29.1559 O   0  0  0  0  0  0  0  0  0  0  0  0
    2.8995  -51.4246  -27.4918 H   0  0  0  0  0  0  0  0  0  0  0  0
    3.8206  -52.7799  -27.9260 H   0  0  0  0  0  0  0  0  0  0  0  0
 18 19  1  0  0  0
 19 20  2  0  0  0
 19 21  2  0  0  0
 19 13  1  0  0  0
 13 14  2  0  0  0
 14 15  1  0  0  0
 15 16  2  0  0  0
 16  1  1  0  0  0
  1  2  1  0  0  0
  2  3  2  0  0  0
  2  5  1  0  0  0
  5  6  2  0  0  0
  6  7  1  0  0  0
  7  8  2  0  0  0
  8  9  1  0  0  0
  8 10  1  0  0  0
 10 11  2  0  0  0
 11 12  1  0  0  0
 16 17  1  0  0  0
 17 13  1  0  0  0
 11  5  1  0  0  0
 18 22  1  0  0  0
 18 23  1  0  0  0
  1  4  1  0  0  0
M  END
> <minimizedAffinity>
-7.12601

> <CNNscore>
0.2432579994

> <CNNaffinity>
5.8555707932

> <CNN_VS>
1.4244143963

> <CNNaffinity_variance>
0.1436432898

$$$$
[H]c1c(N([H])C(=O)c2c([H])c([H])c(Cl)c([H])c2Cl)sc(S(=O)(=O)N([H])[H])c1[H]


 23 24  0  0  0  0  0  0  0  0999 V2000
    1.0226  -52.5663  -21.6916 N   0  0  0  0  0  0  0  0  0  0  0  0
    0.0367  -52.4090  -22.7298 C   0  0  0  0  0  0  0  0  0  0  0  0
   -1.0747  -51.9065  -22.4197 O   0  0  0  0  0  0  0  0  0  0  0  0
    1.9540  -52.9716  -21.8797 H   0  0  0  0  0  0  0  0  0  0  0  0
    0.2996  -52.8107  -24.0916 C   0  0  0  0  0  0  0  0  0  0  0  0
   -0.2606  -53.9576  -24.6290 C   0  0  0  0  0  0  0  0  0  0  0  0
   -0.0125  -54.3483  -25.9342 C   0  0  0  0  0  0  0  0  0  0  0  0
    0.8082  -53.6008  -26.7487 C   0  0  0  0  0  0  0  0  0  0  0  0
    1.1533  -54.0548  -28.4102 Cl  0  0  0  0  0  0  0  0  0  0  0  0
    1.3761  -52.4525  -26.2284 C   0  0  0  0  0  0  0  0  0  0  0  0
    1.1192  -52.0741  -24.9219 C   0  0  0  0  0  0  0  0  0  0  0  0
    1.8293  -50.6185  -24.2378 Cl  0  0  0  0  0  0  0  0  0  0  0  0
   -0.1870  -51.7945  -17.9494 C   0  0  0  0  0  0  0  0  0  0  0  0
    0.7787  -50.9378  -18.3994 C   0  0  0  0  0  0  0  0  0  0  0  0
    1.2442  -51.1219  -19.6448 C   0  0  0  0  0  0  0  0  0  0  0  0
    0.7131  -52.1537  -20.3635 C   0  0  0  0  0  0  0  0  0  0  0  0
   -0.4169  -52.8357  -19.2851 S   0  0  0  0  0  0  0  0  0  0  0  0
   -2.3836  -52.8092  -16.4038 N   0  0  0  0  0  0  0  0  0  0  0  0
   -0.9870  -51.8029  -16.3688 S   0  0  0  0  0  0  0  0  0  0  0  0
    0.0273  -52.4279  -15.4191 O   0  0  0  0  0  0  0  0  0  0  0  0
   -1.2950  -50.4063  -15.9905 O   0  0  0  0  0  0  0  0  0  0  0  0
   -2.7765  -52.7850  -17.3857 H   0  0  0  0  0  0  0  0  0  0  0  0
   -2.0699  -53.7927  -16.2199 H   0  0  0  0  0  0  0  0  0  0  0  0
 18 19  1  0  0  0
 19 20  2  0  0  0
 19 21  2  0  0  0
 19 13  1  0  0  0
 13 14  2  0  0  0
 14 15  1  0  0  0
 15 16  2  0  0  0
 16  1  1  0  0  0
  1  2  1  0  0  0
  2  3  2  0  0  0
  2  5  1  0  0  0
  5  6  2  0  0  0
  6  7  1  0  0  0
  7  8  2  0  0  0
  8  9  1  0  0  0
  8 10  1  0  0  0
 10 11  2  0  0  0
 11 12  1  0  0  0
 16 17  1  0  0  0
 17 13  1  0  0  0
 11  5  1  0  0  0
 18 22  1  0  0  0
 18 23  1  0  0  0
  1  4  1  0  0  0
M  END
> <minimizedAffinity>
-6.24994

> <CNNscore>
0.2423409373

> <CNNaffinity>
5.3421602249

> <CNN_VS>
1.2946240902

> <CNNaffinity_variance>
0.1363402903

$$$$
[H]c1c(N([H])C(=O)c2c([H])c([H])c(Cl)c([H])c2Cl)sc(S(=O)(=O)N([H])[H])c1[H]


 23 24  0  0  0  0  0  0  0  0999 V2000
   -0.4732  -51.6906  -20.9104 N   0  0  0  0  0  0  0  0  0  0  0  0
    0.5002  -51.8911  -19.8679 C   0  0  0  0  0  0  0  0  0  0  0  0
    1.3459  -52.8112  -20.0166 O   0  0  0  0  0  0  0  0  0  0  0  0
   -1.1942  -50.9531  -20.8501 H   0  0  0  0  0  0  0  0  0  0  0  0
    0.5192  -51.0694  -18.6807 C   0  0  0  0  0  0  0  0  0  0  0  0
    1.2809  -49.9148  -18.6116 C   0  0  0  0  0  0  0  0  0  0  0  0
    1.3035  -49.1225  -17.4760 C   0  0  0  0  0  0  0  0  0  0  0  0
    0.5611  -49.4609  -16.3669 C   0  0  0  0  0  0  0  0  0  0  0  0
    0.5568  -48.4887  -14.9037 Cl  0  0  0  0  0  0  0  0  0  0  0  0
   -0.2053  -50.6105  -16.4185 C   0  0  0  0  0  0  0  0  0  0  0  0
   -0.2181  -51.3930  -17.5603 C   0  0  0  0  0  0  0  0  0  0  0  0
   -1.1844  -52.8590  -17.6503 Cl  0  0  0  0  0  0  0  0  0  0  0  0
   -0.1494  -53.6658  -24.3827 C   0  0  0  0  0  0  0  0  0  0  0  0
   -0.8089  -54.3689  -23.4133 C   0  0  0  0  0  0  0  0  0  0  0  0
   -0.9642  -53.7836  -22.2154 C   0  0  0  0  0  0  0  0  0  0  0  0
   -0.4489  -52.5290  -22.0622 C   0  0  0  0  0  0  0  0  0  0  0  0
    0.2355  -52.2022  -23.5885 S   0  0  0  0  0  0  0  0  0  0  0  0
   -0.0591  -55.8592  -26.2331 N   0  0  0  0  0  0  0  0  0  0  0  0
    0.2058  -54.1686  -26.0438 S   0  0  0  0  0  0  0  0  0  0  0  0
   -0.8104  -53.4276  -26.9039 O   0  0  0  0  0  0  0  0  0  0  0  0
    1.5906  -53.7642  -26.3713 O   0  0  0  0  0  0  0  0  0  0  0  0
    0.1401  -56.3249  -25.3044 H   0  0  0  0  0  0  0  0  0  0  0  0
   -1.0779  -55.9993  -26.4375 H   0  0  0  0  0  0  0  0  0  0  0  0
 18 19  1  0  0  0
 19 20  2  0  0  0
 19 21  2  0  0  0
 19 13  1  0  0  0
 13 14  2  0  0  0
 14 15  1  0  0  0
 15 16  2  0  0  0
 16  1  1  0  0  0
  1  2  1  0  0  0
  2  3  2  0  0  0
  2  5  1  0  0  0
  5  6  2  0  0  0
  6  7  1  0  0  0
  7  8  2  0  0  0
  8  9  1  0  0  0
  8 10  1  0  0  0
 10 11  2  0  0  0
 11 12  1  0  0  0
 16 17  1  0  0  0
 17 13  1  0  0  0
 11  5  1  0  0  0
 18 22  1  0  0  0
 18 23  1  0  0  0
  1  4  1  0  0  0
M  END
> <minimizedAffinity>
-6.94259

> <CNNscore>
0.2219151556

> <CNNaffinity>
5.3993439674

> <CNN_VS>
1.1981962919

> <CNNaffinity_variance>
0.1459756345

$$$$
[H]c1c([H])c([H])c(N2c3c([H])c(C(=O)N4C([H])([H])C([H])([H])N(C([H])([H])[H])C([H])([H])C4([H])[H])c([H])c([H])c3C([H])([H])C2([H])[H])c(OC([H])([H])[H])c1[H]


 26 29  0  0  0  0  0  0  0  0999 V2000
    0.9091  -51.5019  -21.7497 C   0  0  0  0  0  0  0  0  0  0  0  0
    0.2853  -52.1152  -20.6982 C   0  0  0  0  0  0  0  0  0  0  0  0
   -0.5091  -53.2528  -20.9144 C   0  0  0  0  0  0  0  0  0  0  0  0
   -0.7036  -53.8031  -22.1529 C   0  0  0  0  0  0  0  0  0  0  0  0
   -0.0775  -53.1885  -23.2105 C   0  0  0  0  0  0  0  0  0  0  0  0
    0.7028  -52.0762  -23.0207 C   0  0  0  0  0  0  0  0  0  0  0  0
   -0.3838  -53.8940  -24.4239 N   0  0  0  0  0  0  0  0  0  0  0  0
   -0.7472  -55.2319  -23.9982 C   0  0  0  0  0  0  0  0  0  0  0  0
   -1.4576  -54.9499  -22.6958 C   0  0  0  0  0  0  0  0  0  0  0  0
    1.7441  -50.3306  -21.6268 C   0  0  0  0  0  0  0  0  0  0  0  0
    2.6722  -49.9489  -20.6606 N   0  0  0  0  0  0  0  0  0  0  0  0
    3.0844  -50.6306  -19.4651 C   0  0  0  0  0  0  0  0  0  0  0  0
    4.1682  -49.7867  -18.7838 C   0  0  0  0  0  0  0  0  0  0  0  0
    3.6601  -48.5024  -18.4270 N   0  0  0  0  0  0  0  0  0  0  0  0
    2.5557  -48.5600  -17.5093 C   0  0  0  0  0  0  0  0  0  0  0  0
    3.3172  -47.7940  -19.6309 C   0  0  0  0  0  0  0  0  0  0  0  0
    3.3649  -48.6461  -20.8574 C   0  0  0  0  0  0  0  0  0  0  0  0
    1.6076  -49.4674  -22.5977 O   0  0  0  0  0  0  0  0  0  0  0  0
   -0.3404  -53.3920  -25.7505 C   0  0  0  0  0  0  0  0  0  0  0  0
   -1.4581  -52.9471  -26.4262 C   0  0  0  0  0  0  0  0  0  0  0  0
   -1.4056  -52.4601  -27.7174 C   0  0  0  0  0  0  0  0  0  0  0  0
   -0.2063  -52.4011  -28.3898 C   0  0  0  0  0  0  0  0  0  0  0  0
    0.9197  -52.8427  -27.7266 C   0  0  0  0  0  0  0  0  0  0  0  0
    0.8633  -53.3293  -26.4343 C   0  0  0  0  0  0  0  0  0  0  0  0
    2.0120  -53.7748  -25.7707 O   0  0  0  0  0  0  0  0  0  0  0  0
    3.1057  -52.9082  -25.6893 C   0  0  0  0  0  0  0  0  0  0  0  0
  1 10  1  0  0  0
 10 11  1  0  0  0
 11 12  1  0  0  0
 12 13  1  0  0  0
 13 14  1  0  0  0
 14 15  1  0  0  0
 14 16  1  0  0  0
 16 17  1  0  0  0
 10 18  2  0  0  0
  1  2  2  0  0  0
  2  3  1  0  0  0
  3  4  2  0  0  0
  4  5  1  0  0  0
  5  6  2  0  0  0
  5  7  1  0  0  0
  7 19  1  0  0  0
 19 20  2  0  0  0
 20 21  1  0  0  0
 21 22  2  0  0  0
 22 23  1  0  0  0
 23 24  2  0  0  0
 24 25  1  0  0  0
 25 26  1  0  0  0
  7  8  1  0  0  0
  8  9  1  0  0  0
  6  1  1  0  0  0
 24 19  1  0  0  0
 17 11  1  0  0  0
  9  4  1  0  0  0
M  END
> <minimizedAffinity>
-7.82211

> <CNNscore>
0.3790987134

> <CNNaffinity>
6.0020241737

> <CNN_VS>
2.2753596306

> <CNNaffinity_variance>
0.0816916674

$$$$
[H]c1c([H])c([H])c(N2c3c([H])c(C(=O)N4C([H])([H])C([H])([H])N(C([H])([H])[H])C([H])([H])C4([H])[H])c([H])c([H])c3C([H])([H])C2([H])[H])c(OC([H])([H])[H])c1[H]


 26 29  0  0  0  0  0  0  0  0999 V2000
   -0.5865  -53.3686  -21.2789 C   0  0  0  0  0  0  0  0  0  0  0  0
   -1.3261  -53.8417  -20.2301 C   0  0  0  0  0  0  0  0  0  0  0  0
   -1.2312  -53.2334  -18.9680 C   0  0  0  0  0  0  0  0  0  0  0  0
   -0.4178  -52.1616  -18.7151 C   0  0  0  0  0  0  0  0  0  0  0  0
    0.3259  -51.6847  -19.7677 C   0  0  0  0  0  0  0  0  0  0  0  0
    0.2478  -52.2648  -21.0084 C   0  0  0  0  0  0  0  0  0  0  0  0
    1.1125  -50.5651  -19.3298 N   0  0  0  0  0  0  0  0  0  0  0  0
    0.4202  -50.0543  -18.1623 C   0  0  0  0  0  0  0  0  0  0  0  0
   -0.0983  -51.3285  -17.5394 C   0  0  0  0  0  0  0  0  0  0  0  0
   -0.6168  -53.9265  -22.6102 C   0  0  0  0  0  0  0  0  0  0  0  0
    0.1554  -53.6722  -23.7415 N   0  0  0  0  0  0  0  0  0  0  0  0
    1.2433  -52.7514  -23.9212 C   0  0  0  0  0  0  0  0  0  0  0  0
    1.7683  -52.9064  -25.3535 C   0  0  0  0  0  0  0  0  0  0  0  0
    0.7480  -52.6012  -26.3024 N   0  0  0  0  0  0  0  0  0  0  0  0
    0.2532  -51.2561  -26.1963 C   0  0  0  0  0  0  0  0  0  0  0  0
   -0.3068  -53.5699  -26.1696 C   0  0  0  0  0  0  0  0  0  0  0  0
   -0.1597  -54.4499  -24.9710 C   0  0  0  0  0  0  0  0  0  0  0  0
   -1.5353  -54.8373  -22.7918 O   0  0  0  0  0  0  0  0  0  0  0  0
    2.3068  -50.0669  -19.9122 C   0  0  0  0  0  0  0  0  0  0  0  0
    2.3183  -49.1867  -20.9747 C   0  0  0  0  0  0  0  0  0  0  0  0
    3.4861  -48.7074  -21.5347 C   0  0  0  0  0  0  0  0  0  0  0  0
    4.7078  -49.1019  -21.0390 C   0  0  0  0  0  0  0  0  0  0  0  0
    4.7115  -49.9819  -19.9767 C   0  0  0  0  0  0  0  0  0  0  0  0
    3.5408  -50.4594  -19.4188 C   0  0  0  0  0  0  0  0  0  0  0  0
    3.5561  -51.3519  -18.3410 O   0  0  0  0  0  0  0  0  0  0  0  0
    3.7402  -50.8331  -17.0563 C   0  0  0  0  0  0  0  0  0  0  0  0
  1 10  1  0  0  0
 10 11  1  0  0  0
 11 12  1  0  0  0
 12 13  1  0  0  0
 13 14  1  0  0  0
 14 15  1  0  0  0
 14 16  1  0  0  0
 16 17  1  0  0  0
 10 18  2  0  0  0
  1  2  2  0  0  0
  2  3  1  0  0  0
  3  4  2  0  0  0
  4  5  1  0  0  0
  5  6  2  0  0  0
  5  7  1  0  0  0
  7 19  1  0  0  0
 19 20  2  0  0  0
 20 21  1  0  0  0
 21 22  2  0  0  0
 22 23  1  0  0  0
 23 24  2  0  0  0
 24 25  1  0  0  0
 25 26  1  0  0  0
  7  8  1  0  0  0
  8  9  1  0  0  0
  6  1  1  0  0  0
 24 19  1  0  0  0
 17 11  1  0  0  0
  9  4  1  0  0  0
M  END
> <minimizedAffinity>
-7.16052

> <CNNscore>
0.3788224161

> <CNNaffinity>
6.2607779503

> <CNN_VS>
2.3717229366

> <CNNaffinity_variance>
0.1766601354

$$$$
[H]c1c([H])c([H])c(N2c3c([H])c(C(=O)N4C([H])([H])C([H])([H])N(C([H])([H])[H])C([H])([H])C4([H])[H])c([H])c([H])c3C([H])([H])C2([H])[H])c(OC([H])([H])[H])c1[H]


 26 29  0  0  0  0  0  0  0  0999 V2000
    0.7698  -51.0579  -21.9395 C   0  0  0  0  0  0  0  0  0  0  0  0
    0.1701  -51.6209  -20.8467 C   0  0  0  0  0  0  0  0  0  0  0  0
   -0.5691  -52.8074  -20.9799 C   0  0  0  0  0  0  0  0  0  0  0  0
   -0.7315  -53.4557  -22.1748 C   0  0  0  0  0  0  0  0  0  0  0  0
   -0.1295  -52.8917  -23.2738 C   0  0  0  0  0  0  0  0  0  0  0  0
    0.5969  -51.7329  -23.1651 C   0  0  0  0  0  0  0  0  0  0  0  0
   -0.3964  -53.6980  -24.4325 N   0  0  0  0  0  0  0  0  0  0  0  0
   -0.6989  -55.0166  -23.9100 C   0  0  0  0  0  0  0  0  0  0  0  0
   -1.4283  -54.6734  -22.6331 C   0  0  0  0  0  0  0  0  0  0  0  0
    1.5484  -49.8427  -21.9018 C   0  0  0  0  0  0  0  0  0  0  0  0
    2.8430  -49.5556  -22.3286 N   0  0  0  0  0  0  0  0  0  0  0  0
    3.8142  -50.4114  -22.9516 C   0  0  0  0  0  0  0  0  0  0  0  0
    5.0628  -49.5749  -23.2554 C   0  0  0  0  0  0  0  0  0  0  0  0
    5.6218  -49.0455  -22.0546 N   0  0  0  0  0  0  0  0  0  0  0  0
    6.0306  -50.0579  -21.1201 C   0  0  0  0  0  0  0  0  0  0  0  0
    4.6759  -48.1320  -21.4720 C   0  0  0  0  0  0  0  0  0  0  0  0
    3.3342  -48.1647  -22.1288 C   0  0  0  0  0  0  0  0  0  0  0  0
    0.9292  -48.8224  -21.3709 O   0  0  0  0  0  0  0  0  0  0  0  0
   -0.3698  -53.2932  -25.7923 C   0  0  0  0  0  0  0  0  0  0  0  0
   -1.4889  -52.8587  -26.4726 C   0  0  0  0  0  0  0  0  0  0  0  0
   -1.4529  -52.4668  -27.7963 C   0  0  0  0  0  0  0  0  0  0  0  0
   -0.2696  -52.4975  -28.4984 C   0  0  0  0  0  0  0  0  0  0  0  0
    0.8575  -52.9299  -27.8310 C   0  0  0  0  0  0  0  0  0  0  0  0
    0.8176  -53.3213  -26.5061 C   0  0  0  0  0  0  0  0  0  0  0  0
    1.9674  -53.7582  -25.8386 O   0  0  0  0  0  0  0  0  0  0  0  0
    3.0354  -52.8659  -25.7094 C   0  0  0  0  0  0  0  0  0  0  0  0
  1 10  1  0  0  0
 10 11  1  0  0  0
 11 12  1  0  0  0
 12 13  1  0  0  0
 13 14  1  0  0  0
 14 15  1  0  0  0
 14 16  1  0  0  0
 16 17  1  0  0  0
 10 18  2  0  0  0
  1  2  2  0  0  0
  2  3  1  0  0  0
  3  4  2  0  0  0
  4  5  1  0  0  0
  5  6  2  0  0  0
  5  7  1  0  0  0
  7 19  1  0  0  0
 19 20  2  0  0  0
 20 21  1  0  0  0
 21 22  2  0  0  0
 22 23  1  0  0  0
 23 24  2  0  0  0
 24 25  1  0  0  0
 25 26  1  0  0  0
  7  8  1  0  0  0
  8  9  1  0  0  0
  6  1  1  0  0  0
 24 19  1  0  0  0
 17 11  1  0  0  0
  9  4  1  0  0  0
M  END
> <minimizedAffinity>
-8.13846

> <CNNscore>
0.3324031830

> <CNNaffinity>
5.9099268913

> <CNN_VS>
1.9644784927

> <CNNaffinity_variance>
0.2113310844

$$$$
[H]c1c([H])c([H])c(N2c3c([H])c(C(=O)N4C([H])([H])C([H])([H])N(C([H])([H])[H])C([H])([H])C4([H])[H])c([H])c([H])c3C([H])([H])C2([H])[H])c(OC([H])([H])[H])c1[H]


 26 29  0  0  0  0  0  0  0  0999 V2000
   -0.6082  -53.0915  -23.7618 C   0  0  0  0  0  0  0  0  0  0  0  0
   -0.8420  -54.2833  -23.1327 C   0  0  0  0  0  0  0  0  0  0  0  0
   -0.5428  -54.4323  -21.7688 C   0  0  0  0  0  0  0  0  0  0  0  0
   -0.0145  -53.4256  -21.0060 C   0  0  0  0  0  0  0  0  0  0  0  0
    0.2209  -52.2274  -21.6364 C   0  0  0  0  0  0  0  0  0  0  0  0
   -0.0643  -52.0612  -22.9680 C   0  0  0  0  0  0  0  0  0  0  0  0
    0.7670  -51.2901  -20.6945 N   0  0  0  0  0  0  0  0  0  0  0  0
    0.3445  -51.7753  -19.3947 C   0  0  0  0  0  0  0  0  0  0  0  0
    0.4031  -53.2704  -19.5989 C   0  0  0  0  0  0  0  0  0  0  0  0
   -0.8827  -52.8430  -25.1573 C   0  0  0  0  0  0  0  0  0  0  0  0
   -0.3878  -53.4295  -26.3199 N   0  0  0  0  0  0  0  0  0  0  0  0
    0.5712  -54.4875  -26.4768 C   0  0  0  0  0  0  0  0  0  0  0  0
    0.7224  -54.7768  -27.9750 C   0  0  0  0  0  0  0  0  0  0  0  0
    1.1952  -53.6232  -28.6680 N   0  0  0  0  0  0  0  0  0  0  0  0
    2.4804  -53.1697  -28.2118 C   0  0  0  0  0  0  0  0  0  0  0  0
    0.1995  -52.5898  -28.5715 C   0  0  0  0  0  0  0  0  0  0  0  0
   -0.9038  -52.9130  -27.6172 C   0  0  0  0  0  0  0  0  0  0  0  0
   -1.7549  -51.8951  -25.3743 O   0  0  0  0  0  0  0  0  0  0  0  0
    1.5495  -50.1397  -20.9742 C   0  0  0  0  0  0  0  0  0  0  0  0
    1.0199  -48.8683  -21.0564 C   0  0  0  0  0  0  0  0  0  0  0  0
    1.7898  -47.7548  -21.3291 C   0  0  0  0  0  0  0  0  0  0  0  0
    3.1451  -47.8797  -21.5331 C   0  0  0  0  0  0  0  0  0  0  0  0
    3.6884  -49.1452  -21.4540 C   0  0  0  0  0  0  0  0  0  0  0  0
    2.9147  -50.2572  -21.1807 C   0  0  0  0  0  0  0  0  0  0  0  0
    3.4764  -51.5366  -21.1027 O   0  0  0  0  0  0  0  0  0  0  0  0
    4.6839  -51.7695  -21.7671 C   0  0  0  0  0  0  0  0  0  0  0  0
  1 10  1  0  0  0
 10 11  1  0  0  0
 11 12  1  0  0  0
 12 13  1  0  0  0
 13 14  1  0  0  0
 14 15  1  0  0  0
 14 16  1  0  0  0
 16 17  1  0  0  0
 10 18  2  0  0  0
  1  2  2  0  0  0
  2  3  1  0  0  0
  3  4  2  0  0  0
  4  5  1  0  0  0
  5  6  2  0  0  0
  5  7  1  0  0  0
  7 19  1  0  0  0
 19 20  2  0  0  0
 20 21  1  0  0  0
 21 22  2  0  0  0
 22 23  1  0  0  0
 23 24  2  0  0  0
 24 25  1  0  0  0
 25 26  1  0  0  0
  7  8  1  0  0  0
  8  9  1  0  0  0
  6  1  1  0  0  0
 24 19  1  0  0  0
 17 11  1  0  0  0
  9  4  1  0  0  0
M  END
> <minimizedAffinity>
-7.50852

> <CNNscore>
0.3216978908

> <CNNaffinity>
5.8771133423

> <CNN_VS>
1.8906549215

> <CNNaffinity_variance>
0.2958388329

$$$$
[H]c1c([H])c([H])c(N2c3c([H])c(C(=O)N4C([H])([H])C([H])([H])N(C([H])([H])[H])C([H])([H])C4([H])[H])c([H])c([H])c3C([H])([H])C2([H])[H])c(OC([H])([H])[H])c1[H]


 26 29  0  0  0  0  0  0  0  0999 V2000
    0.9464  -52.3157  -20.6997 C   0  0  0  0  0  0  0  0  0  0  0  0
   -0.0964  -52.8153  -19.9690 C   0  0  0  0  0  0  0  0  0  0  0  0
   -1.0440  -53.6562  -20.5747 C   0  0  0  0  0  0  0  0  0  0  0  0
   -0.9861  -54.0180  -21.8938 C   0  0  0  0  0  0  0  0  0  0  0  0
    0.0611  -53.5173  -22.6295 C   0  0  0  0  0  0  0  0  0  0  0  0
    0.9973  -52.6941  -22.0568 C   0  0  0  0  0  0  0  0  0  0  0  0
   -0.0299  -53.9976  -23.9804 N   0  0  0  0  0  0  0  0  0  0  0  0
   -0.8235  -55.2085  -23.8951 C   0  0  0  0  0  0  0  0  0  0  0  0
   -1.8004  -54.8507  -22.8006 C   0  0  0  0  0  0  0  0  0  0  0  0
    1.9679  -51.4459  -20.1662 C   0  0  0  0  0  0  0  0  0  0  0  0
    2.2510  -50.1003  -20.3890 N   0  0  0  0  0  0  0  0  0  0  0  0
    1.5886  -49.1527  -21.2416 C   0  0  0  0  0  0  0  0  0  0  0  0
    2.2822  -47.7952  -21.0765 C   0  0  0  0  0  0  0  0  0  0  0  0
    3.6534  -47.8774  -21.4610 N   0  0  0  0  0  0  0  0  0  0  0  0
    3.8397  -48.2628  -22.8329 C   0  0  0  0  0  0  0  0  0  0  0  0
    4.3301  -48.7705  -20.5592 C   0  0  0  0  0  0  0  0  0  0  0  0
    3.4048  -49.5152  -19.6526 C   0  0  0  0  0  0  0  0  0  0  0  0
    2.7775  -52.0224  -19.3185 O   0  0  0  0  0  0  0  0  0  0  0  0
    0.5337  -53.4149  -25.1450 C   0  0  0  0  0  0  0  0  0  0  0  0
    1.8878  -53.4159  -25.4100 C   0  0  0  0  0  0  0  0  0  0  0  0
    2.4268  -52.8461  -26.5466 C   0  0  0  0  0  0  0  0  0  0  0  0
    1.6105  -52.2430  -27.4760 C   0  0  0  0  0  0  0  0  0  0  0  0
    0.2542  -52.2343  -27.2241 C   0  0  0  0  0  0  0  0  0  0  0  0
   -0.2816  -52.8057  -26.0855 C   0  0  0  0  0  0  0  0  0  0  0  0
   -1.6592  -52.7913  -25.8400 O   0  0  0  0  0  0  0  0  0  0  0  0
   -2.4669  -51.9918  -26.6537 C   0  0  0  0  0  0  0  0  0  0  0  0
  1 10  1  0  0  0
 10 11  1  0  0  0
 11 12  1  0  0  0
 12 13  1  0  0  0
 13 14  1  0  0  0
 14 15  1  0  0  0
 14 16  1  0  0  0
 16 17  1  0  0  0
 10 18  2  0  0  0
  1  2  2  0  0  0
  2  3  1  0  0  0
  3  4  2  0  0  0
  4  5  1  0  0  0
  5  6  2  0  0  0
  5  7  1  0  0  0
  7 19  1  0  0  0
 19 20  2  0  0  0
 20 21  1  0  0  0
 21 22  2  0  0  0
 22 23  1  0  0  0
 23 24  2  0  0  0
 24 25  1  0  0  0
 25 26  1  0  0  0
  7  8  1  0  0  0
  8  9  1  0  0  0
  6  1  1  0  0  0
 24 19  1  0  0  0
 17 11  1  0  0  0
  9  4  1  0  0  0
M  END
> <minimizedAffinity>
-7.57514

> <CNNscore>
0.3155211806

> <CNNaffinity>
6.0394277573

> <CNN_VS>
1.9055674076

> <CNNaffinity_variance>
0.2002824992

$$$$
[H]c1c([H])c([H])c(N2c3c([H])c(C(=O)N4C([H])([H])C([H])([H])N(C([H])([H])[H])C([H])([H])C4([H])[H])c([H])c([H])c3C([H])([H])C2([H])[H])c(OC([H])([H])[H])c1[H]


 26 29  0  0  0  0  0  0  0  0999 V2000
   -0.2693  -52.4451  -20.3434 C   0  0  0  0  0  0  0  0  0  0  0  0
   -1.3394  -53.2544  -20.0775 C   0  0  0  0  0  0  0  0  0  0  0  0
   -1.7975  -54.1608  -21.0474 C   0  0  0  0  0  0  0  0  0  0  0  0
   -1.2201  -54.2879  -22.2822 C   0  0  0  0  0  0  0  0  0  0  0  0
   -0.1446  -53.4758  -22.5511 C   0  0  0  0  0  0  0  0  0  0  0  0
    0.3184  -52.5837  -21.6175 C   0  0  0  0  0  0  0  0  0  0  0  0
    0.3365  -53.7423  -23.8783 N   0  0  0  0  0  0  0  0  0  0  0  0
   -0.1192  -55.0858  -24.1796 C   0  0  0  0  0  0  0  0  0  0  0  0
   -1.4591  -55.1113  -23.4836 C   0  0  0  0  0  0  0  0  0  0  0  0
    0.2729  -51.4845  -19.4120 C   0  0  0  0  0  0  0  0  0  0  0  0
    0.8804  -50.2457  -19.6038 N   0  0  0  0  0  0  0  0  0  0  0  0
    1.1540  -49.5374  -20.8233 C   0  0  0  0  0  0  0  0  0  0  0  0
    1.7994  -48.1945  -20.4612 C   0  0  0  0  0  0  0  0  0  0  0  0
    3.0267  -48.3949  -19.7623 N   0  0  0  0  0  0  0  0  0  0  0  0
    4.0052  -49.1219  -20.5234 C   0  0  0  0  0  0  0  0  0  0  0  0
    2.7407  -49.0380  -18.5080 C   0  0  0  0  0  0  0  0  0  0  0  0
    1.3281  -49.5104  -18.3894 C   0  0  0  0  0  0  0  0  0  0  0  0
    0.1787  -51.8377  -18.1579 O   0  0  0  0  0  0  0  0  0  0  0  0
    1.0931  -52.8796  -24.7132 C   0  0  0  0  0  0  0  0  0  0  0  0
    2.4658  -52.9551  -24.8303 C   0  0  0  0  0  0  0  0  0  0  0  0
    3.1934  -52.1108  -25.6457 C   0  0  0  0  0  0  0  0  0  0  0  0
    2.5570  -51.1416  -26.3872 C   0  0  0  0  0  0  0  0  0  0  0  0
    1.1845  -51.0544  -26.2799 C   0  0  0  0  0  0  0  0  0  0  0  0
    0.4598  -51.9012  -25.4629 C   0  0  0  0  0  0  0  0  0  0  0  0
   -0.9326  -51.8040  -25.3616 O   0  0  0  0  0  0  0  0  0  0  0  0
   -1.7058  -52.2486  -26.4379 C   0  0  0  0  0  0  0  0  0  0  0  0
  1 10  1  0  0  0
 10 11  1  0  0  0
 11 12  1  0  0  0
 12 13  1  0  0  0
 13 14  1  0  0  0
 14 15  1  0  0  0
 14 16  1  0  0  0
 16 17  1  0  0  0
 10 18  2  0  0  0
  1  2  2  0  0  0
  2  3  1  0  0  0
  3  4  2  0  0  0
  4  5  1  0  0  0
  5  6  2  0  0  0
  5  7  1  0  0  0
  7 19  1  0  0  0
 19 20  2  0  0  0
 20 21  1  0  0  0
 21 22  2  0  0  0
 22 23  1  0  0  0
 23 24  2  0  0  0
 24 25  1  0  0  0
 25 26  1  0  0  0
  7  8  1  0  0  0
  8  9  1  0  0  0
  6  1  1  0  0  0
 24 19  1  0  0  0
 17 11  1  0  0  0
  9  4  1  0  0  0
M  END
> <minimizedAffinity>
-7.07513

> <CNNscore>
0.2436684370

> <CNNaffinity>
5.8052058220

> <CNN_VS>
1.4145454168

> <CNNaffinity_variance>
0.1514763981

$$$$
[H]c1c([H])c([H])c(N2c3c([H])c(C(=O)N4C([H])([H])C([H])([H])N(C([H])([H])[H])C([H])([H])C4([H])[H])c([H])c([H])c3C([H])([H])C2([H])[H])c(OC([H])([H])[H])c1[H]


 26 29  0  0  0  0  0  0  0  0999 V2000
    0.8149  -50.4137  -20.4926 C   0  0  0  0  0  0  0  0  0  0  0  0
    0.2176  -50.9961  -19.4086 C   0  0  0  0  0  0  0  0  0  0  0  0
   -0.4244  -52.2382  -19.5386 C   0  0  0  0  0  0  0  0  0  0  0  0
   -0.4913  -52.9237  -20.7219 C   0  0  0  0  0  0  0  0  0  0  0  0
    0.1084  -52.3403  -21.8120 C   0  0  0  0  0  0  0  0  0  0  0  0
    0.7407  -51.1274  -21.7061 C   0  0  0  0  0  0  0  0  0  0  0  0
   -0.0522  -53.1905  -22.9589 N   0  0  0  0  0  0  0  0  0  0  0  0
   -0.2745  -54.5163  -22.4146 C   0  0  0  0  0  0  0  0  0  0  0  0
   -1.0763  -54.2010  -21.1744 C   0  0  0  0  0  0  0  0  0  0  0  0
    1.4977  -49.1422  -20.4571 C   0  0  0  0  0  0  0  0  0  0  0  0
    2.7096  -48.7543  -19.8901 N   0  0  0  0  0  0  0  0  0  0  0  0
    3.6664  -49.5304  -19.1512 C   0  0  0  0  0  0  0  0  0  0  0  0
    4.8475  -48.6196  -18.7954 C   0  0  0  0  0  0  0  0  0  0  0  0
    4.4182  -47.5278  -17.9840 N   0  0  0  0  0  0  0  0  0  0  0  0
    3.8339  -47.9382  -16.7369 C   0  0  0  0  0  0  0  0  0  0  0  0
    3.5172  -46.7115  -18.7525 C   0  0  0  0  0  0  0  0  0  0  0  0
    3.1131  -47.3305  -20.0510 C   0  0  0  0  0  0  0  0  0  0  0  0
    0.8670  -48.1748  -21.0677 O   0  0  0  0  0  0  0  0  0  0  0  0
   -0.0039  -52.8156  -24.3267 C   0  0  0  0  0  0  0  0  0  0  0  0
   -1.1301  -52.5345  -25.0726 C   0  0  0  0  0  0  0  0  0  0  0  0
   -1.0727  -52.1705  -26.4034 C   0  0  0  0  0  0  0  0  0  0  0  0
    0.1405  -52.0736  -27.0459 C   0  0  0  0  0  0  0  0  0  0  0  0
    1.2751  -52.3518  -26.3125 C   0  0  0  0  0  0  0  0  0  0  0  0
    1.2137  -52.7158  -24.9807 C   0  0  0  0  0  0  0  0  0  0  0  0
    2.3714  -52.9959  -24.2459 O   0  0  0  0  0  0  0  0  0  0  0  0
    3.6023  -52.5987  -24.7757 C   0  0  0  0  0  0  0  0  0  0  0  0
  1 10  1  0  0  0
 10 11  1  0  0  0
 11 12  1  0  0  0
 12 13  1  0  0  0
 13 14  1  0  0  0
 14 15  1  0  0  0
 14 16  1  0  0  0
 16 17  1  0  0  0
 10 18  2  0  0  0
  1  2  2  0  0  0
  2  3  1  0  0  0
  3  4  2  0  0  0
  4  5  1  0  0  0
  5  6  2  0  0  0
  5  7  1  0  0  0
  7 19  1  0  0  0
 19 20  2  0  0  0
 20 21  1  0  0  0
 21 22  2  0  0  0
 22 23  1  0  0  0
 23 24  2  0  0  0
 24 25  1  0  0  0
 25 26  1  0  0  0
  7  8  1  0  0  0
  8  9  1  0  0  0
  6  1  1  0  0  0
 24 19  1  0  0  0
 17 11  1  0  0  0
  9  4  1  0  0  0
M  END
> <minimizedAffinity>
-7.54675

> <CNNscore>
0.2368406206

> <CNNaffinity>
5.5118231773

> <CNN_VS>
1.3054236174

> <CNNaffinity_variance>
0.1450422257

$$$$
[H]c1c([H])c([H])c(N2c3c([H])c(C(=O)N4C([H])([H])C([H])([H])N(C([H])([H])[H])C([H])([H])C4([H])[H])c([H])c([H])c3C([H])([H])C2([H])[H])c(OC([H])([H])[H])c1[H]


 26 29  0  0  0  0  0  0  0  0999 V2000
    1.7573  -51.5368  -23.1089 C   0  0  0  0  0  0  0  0  0  0  0  0
    1.1490  -51.9565  -21.9579 C   0  0  0  0  0  0  0  0  0  0  0  0
    0.1968  -52.9878  -21.9980 C   0  0  0  0  0  0  0  0  0  0  0  0
   -0.1717  -53.6190  -23.1557 C   0  0  0  0  0  0  0  0  0  0  0  0
    0.4385  -53.1990  -24.3131 C   0  0  0  0  0  0  0  0  0  0  0  0
    1.3712  -52.1930  -24.2955 C   0  0  0  0  0  0  0  0  0  0  0  0
   -0.0587  -53.9653  -25.4219 N   0  0  0  0  0  0  0  0  0  0  0  0
   -0.5575  -55.1940  -24.8347 C   0  0  0  0  0  0  0  0  0  0  0  0
   -1.1127  -54.6955  -23.5219 C   0  0  0  0  0  0  0  0  0  0  0  0
    2.7461  -50.4865  -23.1677 C   0  0  0  0  0  0  0  0  0  0  0  0
    3.9784  -50.3348  -22.5360 N   0  0  0  0  0  0  0  0  0  0  0  0
    4.6486  -51.2066  -21.6116 C   0  0  0  0  0  0  0  0  0  0  0  0
    6.0020  -50.5785  -21.2582 C   0  0  0  0  0  0  0  0  0  0  0  0
    5.8232  -49.3054  -20.6402 N   0  0  0  0  0  0  0  0  0  0  0  0
    5.0729  -49.3653  -19.4159 C   0  0  0  0  0  0  0  0  0  0  0  0
    5.2191  -48.4135  -21.5932 C   0  0  0  0  0  0  0  0  0  0  0  0
    4.7508  -49.0982  -22.8359 C   0  0  0  0  0  0  0  0  0  0  0  0
    2.4319  -49.4943  -23.9570 O   0  0  0  0  0  0  0  0  0  0  0  0
   -0.0614  -53.6003  -26.7932 C   0  0  0  0  0  0  0  0  0  0  0  0
    0.9959  -53.8516  -27.6433 C   0  0  0  0  0  0  0  0  0  0  0  0
    0.9837  -53.4924  -28.9767 C   0  0  0  0  0  0  0  0  0  0  0  0
   -0.1112  -52.8559  -29.5152 C   0  0  0  0  0  0  0  0  0  0  0  0
   -1.1759  -52.5981  -28.6768 C   0  0  0  0  0  0  0  0  0  0  0  0
   -1.1601  -52.9592  -27.3428 C   0  0  0  0  0  0  0  0  0  0  0  0
   -2.2459  -52.6929  -26.5011 O   0  0  0  0  0  0  0  0  0  0  0  0
   -2.3917  -51.3956  -26.0014 C   0  0  0  0  0  0  0  0  0  0  0  0
  1 10  1  0  0  0
 10 11  1  0  0  0
 11 12  1  0  0  0
 12 13  1  0  0  0
 13 14  1  0  0  0
 14 15  1  0  0  0
 14 16  1  0  0  0
 16 17  1  0  0  0
 10 18  2  0  0  0
  1  2  2  0  0  0
  2  3  1  0  0  0
  3  4  2  0  0  0
  4  5  1  0  0  0
  5  6  2  0  0  0
  5  7  1  0  0  0
  7 19  1  0  0  0
 19 20  2  0  0  0
 20 21  1  0  0  0
 21 22  2  0  0  0
 22 23  1  0  0  0
 23 24  2  0  0  0
 24 25  1  0  0  0
 25 26  1  0  0  0
  7  8  1  0  0  0
  8  9  1  0  0  0
  6  1  1  0  0  0
 24 19  1  0  0  0
 17 11  1  0  0  0
  9  4  1  0  0  0
M  END
> <minimizedAffinity>
-7.77454

> <CNNscore>
0.2291335016

> <CNNaffinity>
5.8070850372

> <CNN_VS>
1.3305977583

> <CNNaffinity_variance>
0.1809003651

$$$$
[H]c1c([H])c([H])c(N2c3c([H])c(C(=O)N4C([H])([H])C([H])([H])N(C([H])([H])[H])C([H])([H])C4([H])[H])c([H])c([H])c3C([H])([H])C2([H])[H])c(OC([H])([H])[H])c1[H]


 26 29  0  0  0  0  0  0  0  0999 V2000
    0.0819  -53.6226  -24.1413 C   0  0  0  0  0  0  0  0  0  0  0  0
   -0.4869  -54.3681  -25.1371 C   0  0  0  0  0  0  0  0  0  0  0  0
    0.0082  -54.2891  -26.4488 C   0  0  0  0  0  0  0  0  0  0  0  0
    1.0589  -53.4860  -26.8031 C   0  0  0  0  0  0  0  0  0  0  0  0
    1.6318  -52.7365  -25.8039 C   0  0  0  0  0  0  0  0  0  0  0  0
    1.1630  -52.7990  -24.5161 C   0  0  0  0  0  0  0  0  0  0  0  0
    2.7135  -51.9622  -26.3465 N   0  0  0  0  0  0  0  0  0  0  0  0
    3.1146  -52.6688  -27.5478 C   0  0  0  0  0  0  0  0  0  0  0  0
    1.7871  -53.1834  -28.0508 C   0  0  0  0  0  0  0  0  0  0  0  0
   -0.3565  -53.6367  -22.7658 C   0  0  0  0  0  0  0  0  0  0  0  0
   -0.2239  -52.7044  -21.7392 N   0  0  0  0  0  0  0  0  0  0  0  0
    0.4076  -51.4141  -21.7481 C   0  0  0  0  0  0  0  0  0  0  0  0
    0.2275  -50.7847  -20.3616 C   0  0  0  0  0  0  0  0  0  0  0  0
    0.8424  -51.5890  -19.3568 N   0  0  0  0  0  0  0  0  0  0  0  0
    2.2574  -51.7549  -19.5449 C   0  0  0  0  0  0  0  0  0  0  0  0
    0.1596  -52.8536  -19.2998 C   0  0  0  0  0  0  0  0  0  0  0  0
   -0.8109  -53.0573  -20.4175 C   0  0  0  0  0  0  0  0  0  0  0  0
   -0.9953  -54.7208  -22.4150 O   0  0  0  0  0  0  0  0  0  0  0  0
    3.2691  -50.7665  -25.8218 C   0  0  0  0  0  0  0  0  0  0  0  0
    2.8282  -49.5089  -26.1794 C   0  0  0  0  0  0  0  0  0  0  0  0
    3.3755  -48.3509  -25.6631 C   0  0  0  0  0  0  0  0  0  0  0  0
    4.4048  -48.4147  -24.7518 C   0  0  0  0  0  0  0  0  0  0  0  0
    4.8560  -49.6656  -24.3851 C   0  0  0  0  0  0  0  0  0  0  0  0
    4.3057  -50.8223  -24.9038 C   0  0  0  0  0  0  0  0  0  0  0  0
    4.7711  -52.0865  -24.5247 O   0  0  0  0  0  0  0  0  0  0  0  0
    5.0241  -52.3182  -23.1697 C   0  0  0  0  0  0  0  0  0  0  0  0
  1 10  1  0  0  0
 10 11  1  0  0  0
 11 12  1  0  0  0
 12 13  1  0  0  0
 13 14  1  0  0  0
 14 15  1  0  0  0
 14 16  1  0  0  0
 16 17  1  0  0  0
 10 18  2  0  0  0
  1  2  2  0  0  0
  2  3  1  0  0  0
  3  4  2  0  0  0
  4  5  1  0  0  0
  5  6  2  0  0  0
  5  7  1  0  0  0
  7 19  1  0  0  0
 19 20  2  0  0  0
 20 21  1  0  0  0
 21 22  2  0  0  0
 22 23  1  0  0  0
 23 24  2  0  0  0
 24 25  1  0  0  0
 25 26  1  0  0  0
  7  8  1  0  0  0
  8  9  1  0  0  0
  6  1  1  0  0  0
 24 19  1  0  0  0
 17 11  1  0  0  0
  9  4  1  0  0  0
M  END
> <minimizedAffinity>
-7.46858

> <CNNscore>
0.2204194963

> <CNNaffinity>
5.9893441200

> <CNN_VS>
1.3201682568

> <CNNaffinity_variance>
0.1335040778

$$$$
[H]N=C(N([H])[H])N([H])C([H])([H])C([H])([H])C([H])([H])[C@@]([H])(C(=O)O[H])N([H])C(=O)[C@@]([H])(N([H])C(=O)c1c([H])c([H])c(OC([H])([H])[C@@]([H])(C(=N[H])N([H])[H])N([H])c2c([H])c([H])c3nc([H])c([H])c([H])c3c2[H])c(C([H])([H])[H])c1[H])C([H])([H])C(=O)O[H]


 58 60  0  0  0  0  0  0  0  0999 V2000
    4.2697  -50.3377  -21.5456 C   0  0  0  0  0  0  0  0  0  0  0  0
    4.1864  -51.5719  -21.7304 O   0  0  0  0  0  0  0  0  0  0  0  0
    4.7091  -49.4453  -22.5471 N   0  0  0  0  0  0  0  0  0  0  0  0
    4.7667  -48.4354  -22.3428 H   0  0  0  0  0  0  0  0  0  0  0  0
    3.7476  -50.9130  -16.6513 C   0  0  0  0  0  0  0  0  0  0  0  0
    3.6374  -50.1138  -17.8859 C   0  0  0  0  0  0  0  0  0  0  0  0
    4.0057  -50.6005  -19.0994 C   0  0  0  0  0  0  0  0  0  0  0  0
    3.8966  -49.8310  -20.2440 C   0  0  0  0  0  0  0  0  0  0  0  0
    3.4015  -48.5544  -20.1163 C   0  0  0  0  0  0  0  0  0  0  0  0
    3.0234  -48.0491  -18.8889 C   0  0  0  0  0  0  0  0  0  0  0  0
    3.1273  -48.7974  -17.7532 C   0  0  0  0  0  0  0  0  0  0  0  0
    2.7715  -48.3651  -16.5172 O   0  0  0  0  0  0  0  0  0  0  0  0
    1.6167  -48.0856  -15.8847 C   0  0  0  0  0  0  0  0  0  0  0  0
    0.9706  -49.2433  -15.2305 C   0  0  0  0  0  0  0  0  0  0  0  0
    0.6869  -48.9609  -13.7659 C   0  0  0  0  0  0  0  0  0  0  0  0
   -0.5879  -49.3384  -13.2830 N   0  0  0  0  0  0  0  0  0  0  0  0
    1.5651  -48.4259  -13.0519 N   0  0  0  0  0  0  0  0  0  0  0  0
   -1.4446  -49.4152  -13.8760 H   0  0  0  0  0  0  0  0  0  0  0  0
   -0.7514  -49.5731  -12.2588 H   0  0  0  0  0  0  0  0  0  0  0  0
    2.4981  -48.1453  -13.3686 H   0  0  0  0  0  0  0  0  0  0  0  0
   -0.1953  -49.8027  -15.8434 N   0  0  0  0  0  0  0  0  0  0  0  0
   -1.1621  -49.4552  -15.4637 H   0  0  0  0  0  0  0  0  0  0  0  0
   -0.3367  -50.7475  -16.8702 C   0  0  0  0  0  0  0  0  0  0  0  0
   -1.1303  -51.8999  -16.6515 C   0  0  0  0  0  0  0  0  0  0  0  0
   -1.2782  -52.8670  -17.6060 C   0  0  0  0  0  0  0  0  0  0  0  0
   -0.6483  -52.7456  -18.8283 C   0  0  0  0  0  0  0  0  0  0  0  0
   -0.7662  -53.6769  -19.7947 N   0  0  0  0  0  0  0  0  0  0  0  0
   -0.1316  -53.5333  -20.9866 C   0  0  0  0  0  0  0  0  0  0  0  0
    0.6523  -52.4417  -21.2635 C   0  0  0  0  0  0  0  0  0  0  0  0
    0.7782  -51.4738  -20.2714 C   0  0  0  0  0  0  0  0  0  0  0  0
    0.1288  -51.6452  -19.0778 C   0  0  0  0  0  0  0  0  0  0  0  0
    0.2578  -50.6786  -18.0833 C   0  0  0  0  0  0  0  0  0  0  0  0
    5.0661  -49.9988  -23.8336 C   0  0  0  0  0  0  0  0  0  0  0  0
    3.8353  -50.5060  -24.4797 C   0  0  0  0  0  0  0  0  0  0  0  0
    3.0217  -49.6810  -24.9536 O   0  0  0  0  0  0  0  0  0  0  0  0
    3.5148  -51.8716  -24.5971 N   0  0  0  0  0  0  0  0  0  0  0  0
    4.1816  -52.5712  -24.2107 H   0  0  0  0  0  0  0  0  0  0  0  0
    2.3157  -52.3674  -25.2235 C   0  0  0  0  0  0  0  0  0  0  0  0
    2.5854  -52.4445  -26.6835 C   0  0  0  0  0  0  0  0  0  0  0  0
    3.5555  -53.3007  -27.1834 O   0  0  0  0  0  0  0  0  0  0  0  0
    1.9613  -51.7488  -27.5335 O   0  0  0  0  0  0  0  0  0  0  0  0
    3.2516  -54.0648  -27.7992 H   0  0  0  0  0  0  0  0  0  0  0  0
    1.0906  -51.5280  -24.9330 C   0  0  0  0  0  0  0  0  0  0  0  0
   -0.1433  -52.3665  -24.7705 C   0  0  0  0  0  0  0  0  0  0  0  0
   -1.1124  -51.9348  -25.8811 C   0  0  0  0  0  0  0  0  0  0  0  0
   -1.0121  -52.8453  -26.9868 N   0  0  0  0  0  0  0  0  0  0  0  0
   -0.3070  -53.6048  -26.9582 H   0  0  0  0  0  0  0  0  0  0  0  0
   -1.8716  -52.6861  -28.0865 C   0  0  0  0  0  0  0  0  0  0  0  0
   -3.2820  -52.5435  -27.9437 N   0  0  0  0  0  0  0  0  0  0  0  0
   -1.3443  -52.6710  -29.2869 N   0  0  0  0  0  0  0  0  0  0  0  0
   -3.8055  -51.9551  -28.6164 H   0  0  0  0  0  0  0  0  0  0  0  0
   -3.8001  -53.0252  -27.1685 H   0  0  0  0  0  0  0  0  0  0  0  0
   -0.3255  -52.7725  -29.4220 H   0  0  0  0  0  0  0  0  0  0  0  0
    6.1312  -51.0508  -23.7372 C   0  0  0  0  0  0  0  0  0  0  0  0
    7.4617  -50.5207  -23.3653 C   0  0  0  0  0  0  0  0  0  0  0  0
    8.4403  -50.3665  -24.3534 O   0  0  0  0  0  0  0  0  0  0  0  0
    7.7900  -50.1884  -22.1969 O   0  0  0  0  0  0  0  0  0  0  0  0
    9.2896  -50.8858  -24.2721 H   0  0  0  0  0  0  0  0  0  0  0  0
  5  6  1  0  0  0
  6  7  2  0  0  0
  7  8  1  0  0  0
  8  9  2  0  0  0
  9 10  1  0  0  0
 10 11  2  0  0  0
 11 12  1  0  0  0
 12 13  1  0  0  0
 13 14  1  0  0  0
 14 21  1  0  0  0
 21 23  1  0  0  0
 23 24  2  0  0  0
 24 25  1  0  0  0
 25 26  2  0  0  0
 26 27  1  0  0  0
 27 28  2  0  0  0
 28 29  1  0  0  0
 29 30  2  0  0  0
 30 31  1  0  0  0
 31 32  2  0  0  0
 14 15  1  0  0  0
 15 16  1  0  0  0
 15 17  2  0  0  0
  8  1  1  0  0  0
  1  2  2  0  0  0
  1  3  1  0  0  0
  3 33  1  0  0  0
 33 54  1  0  0  0
 54 55  1  0  0  0
 55 56  1  0  0  0
 55 57  2  0  0  0
 33 34  1  0  0  0
 34 35  2  0  0  0
 34 36  1  0  0  0
 36 38  1  0  0  0
 38 43  1  0  0  0
 43 44  1  0  0  0
 44 45  1  0  0  0
 45 46  1  0  0  0
 46 48  1  0  0  0
 48 49  1  0  0  0
 48 50  2  0  0  0
 38 39  1  0  0  0
 39 40  1  0  0  0
 39 41  2  0  0  0
 11  6  1  0  0  0
 32 23  1  0  0  0
 31 26  1  0  0  0
 21 22  1  0  0  0
 16 18  1  0  0  0
 16 19  1  0  0  0
 17 20  1  0  0  0
  3  4  1  0  0  0
 56 58  1  0  0  0
 36 37  1  0  0  0
 46 47  1  0  0  0
 49 51  1  0  0  0
 49 52  1  0  0  0
 50 53  1  0  0  0
 40 42  1  0  0  0
M  END
> <minimizedAffinity>
-7.53719

> <CNNscore>
0.2459128648

> <CNNaffinity>
7.0211167336

> <CNN_VS>
1.7265828848

> <CNNaffinity_variance>
0.1059961468

$$$$
[H]N=C(N([H])[H])N([H])C([H])([H])C([H])([H])C([H])([H])[C@@]([H])(C(=O)O[H])N([H])C(=O)[C@@]([H])(N([H])C(=O)c1c([H])c([H])c(OC([H])([H])[C@@]([H])(C(=N[H])N([H])[H])N([H])c2c([H])c([H])c3nc([H])c([H])c([H])c3c2[H])c(C([H])([H])[H])c1[H])C([H])([H])C(=O)O[H]


 58 60  0  0  0  0  0  0  0  0999 V2000
    4.4058  -51.1092  -22.0471 C   0  0  0  0  0  0  0  0  0  0  0  0
    5.4958  -51.6579  -21.7730 O   0  0  0  0  0  0  0  0  0  0  0  0
    3.7263  -50.2688  -21.1392 N   0  0  0  0  0  0  0  0  0  0  0  0
    2.8255  -49.8446  -21.4108 H   0  0  0  0  0  0  0  0  0  0  0  0
    2.5645  -49.5193  -26.3646 C   0  0  0  0  0  0  0  0  0  0  0  0
    2.9444  -50.5952  -25.4300 C   0  0  0  0  0  0  0  0  0  0  0  0
    3.4881  -50.3383  -24.2120 C   0  0  0  0  0  0  0  0  0  0  0  0
    3.8399  -51.3643  -23.3529 C   0  0  0  0  0  0  0  0  0  0  0  0
    3.6211  -52.6563  -23.7699 C   0  0  0  0  0  0  0  0  0  0  0  0
    3.0688  -52.9296  -25.0048 C   0  0  0  0  0  0  0  0  0  0  0  0
    2.7189  -51.9271  -25.8610 C   0  0  0  0  0  0  0  0  0  0  0  0
    2.1694  -52.1244  -27.0859 O   0  0  0  0  0  0  0  0  0  0  0  0
    1.2203  -52.9264  -27.6032 C   0  0  0  0  0  0  0  0  0  0  0  0
   -0.1111  -52.8000  -26.9731 C   0  0  0  0  0  0  0  0  0  0  0  0
   -1.2043  -52.6635  -28.0177 C   0  0  0  0  0  0  0  0  0  0  0  0
   -0.7882  -52.6212  -29.3690 N   0  0  0  0  0  0  0  0  0  0  0  0
   -2.4031  -52.6017  -27.6623 N   0  0  0  0  0  0  0  0  0  0  0  0
    0.1496  -52.2886  -29.6875 H   0  0  0  0  0  0  0  0  0  0  0  0
   -1.4247  -52.9355  -30.1607 H   0  0  0  0  0  0  0  0  0  0  0  0
   -2.7379  -52.6344  -26.6946 H   0  0  0  0  0  0  0  0  0  0  0  0
   -0.4965  -53.7800  -26.0040 N   0  0  0  0  0  0  0  0  0  0  0  0
   -0.8473  -54.7417  -26.3935 H   0  0  0  0  0  0  0  0  0  0  0  0
   -0.5141  -53.7367  -24.6023 C   0  0  0  0  0  0  0  0  0  0  0  0
   -0.9686  -54.8646  -23.8765 C   0  0  0  0  0  0  0  0  0  0  0  0
   -1.0352  -54.8664  -22.5113 C   0  0  0  0  0  0  0  0  0  0  0  0
   -0.6556  -53.7517  -21.7910 C   0  0  0  0  0  0  0  0  0  0  0  0
   -0.7083  -53.7116  -20.4453 N   0  0  0  0  0  0  0  0  0  0  0  0
   -0.3323  -52.5996  -19.7627 C   0  0  0  0  0  0  0  0  0  0  0  0
    0.1173  -51.4729  -20.4039 C   0  0  0  0  0  0  0  0  0  0  0  0
    0.1766  -51.5061  -21.7940 C   0  0  0  0  0  0  0  0  0  0  0  0
   -0.2108  -52.6401  -22.4571 C   0  0  0  0  0  0  0  0  0  0  0  0
   -0.1552  -52.6723  -23.8485 C   0  0  0  0  0  0  0  0  0  0  0  0
    4.3343  -50.0400  -19.8481 C   0  0  0  0  0  0  0  0  0  0  0  0
    3.4699  -50.6482  -18.8124 C   0  0  0  0  0  0  0  0  0  0  0  0
    3.0301  -51.8050  -19.0002 O   0  0  0  0  0  0  0  0  0  0  0  0
    3.1045  -50.0031  -17.6158 N   0  0  0  0  0  0  0  0  0  0  0  0
    3.4637  -49.0417  -17.4425 H   0  0  0  0  0  0  0  0  0  0  0  0
    2.2609  -50.5925  -16.6074 C   0  0  0  0  0  0  0  0  0  0  0  0
    0.8767  -50.1129  -16.8610 C   0  0  0  0  0  0  0  0  0  0  0  0
    0.6346  -48.7939  -17.2155 O   0  0  0  0  0  0  0  0  0  0  0  0
   -0.1361  -50.8625  -16.7688 O   0  0  0  0  0  0  0  0  0  0  0  0
    0.2354  -48.6109  -18.1442 H   0  0  0  0  0  0  0  0  0  0  0  0
    2.7014  -50.2817  -15.1935 C   0  0  0  0  0  0  0  0  0  0  0  0
    1.6166  -50.5498  -14.1919 C   0  0  0  0  0  0  0  0  0  0  0  0
    2.1496  -51.6444  -13.2555 C   0  0  0  0  0  0  0  0  0  0  0  0
    3.5753  -51.7426  -13.3939 N   0  0  0  0  0  0  0  0  0  0  0  0
    4.1345  -50.8794  -13.5247 H   0  0  0  0  0  0  0  0  0  0  0  0
    4.1831  -53.0084  -13.3508 C   0  0  0  0  0  0  0  0  0  0  0  0
    4.2096  -53.8071  -12.1712 N   0  0  0  0  0  0  0  0  0  0  0  0
    4.7461  -53.4620  -14.4446 N   0  0  0  0  0  0  0  0  0  0  0  0
    4.1777  -54.8391  -12.2537 H   0  0  0  0  0  0  0  0  0  0  0  0
    4.2614  -53.3676  -11.2196 H   0  0  0  0  0  0  0  0  0  0  0  0
    4.7433  -52.9058  -15.3147 H   0  0  0  0  0  0  0  0  0  0  0  0
    4.6029  -48.5883  -19.5823 C   0  0  0  0  0  0  0  0  0  0  0  0
    3.4586  -47.7030  -19.8926 C   0  0  0  0  0  0  0  0  0  0  0  0
    2.6690  -47.2097  -18.8482 O   0  0  0  0  0  0  0  0  0  0  0  0
    3.1321  -47.3493  -21.0552 O   0  0  0  0  0  0  0  0  0  0  0  0
    1.7006  -47.4530  -18.8232 H   0  0  0  0  0  0  0  0  0  0  0  0
  5  6  1  0  0  0
  6  7  2  0  0  0
  7  8  1  0  0  0
  8  9  2  0  0  0
  9 10  1  0  0  0
 10 11  2  0  0  0
 11 12  1  0  0  0
 12 13  1  0  0  0
 13 14  1  0  0  0
 14 21  1  0  0  0
 21 23  1  0  0  0
 23 24  2  0  0  0
 24 25  1  0  0  0
 25 26  2  0  0  0
 26 27  1  0  0  0
 27 28  2  0  0  0
 28 29  1  0  0  0
 29 30  2  0  0  0
 30 31  1  0  0  0
 31 32  2  0  0  0
 14 15  1  0  0  0
 15 16  1  0  0  0
 15 17  2  0  0  0
  8  1  1  0  0  0
  1  2  2  0  0  0
  1  3  1  0  0  0
  3 33  1  0  0  0
 33 54  1  0  0  0
 54 55  1  0  0  0
 55 56  1  0  0  0
 55 57  2  0  0  0
 33 34  1  0  0  0
 34 35  2  0  0  0
 34 36  1  0  0  0
 36 38  1  0  0  0
 38 43  1  0  0  0
 43 44  1  0  0  0
 44 45  1  0  0  0
 45 46  1  0  0  0
 46 48  1  0  0  0
 48 49  1  0  0  0
 48 50  2  0  0  0
 38 39  1  0  0  0
 39 40  1  0  0  0
 39 41  2  0  0  0
 11  6  1  0  0  0
 32 23  1  0  0  0
 31 26  1  0  0  0
 21 22  1  0  0  0
 16 18  1  0  0  0
 16 19  1  0  0  0
 17 20  1  0  0  0
  3  4  1  0  0  0
 56 58  1  0  0  0
 36 37  1  0  0  0
 46 47  1  0  0  0
 49 51  1  0  0  0
 49 52  1  0  0  0
 50 53  1  0  0  0
 40 42  1  0  0  0
M  END
> <minimizedAffinity>
-8.25810

> <CNNscore>
0.1845369488

> <CNNaffinity>
6.5919485092

> <CNN_VS>
1.2164580822

> <CNNaffinity_variance>
0.5118241310

$$$$
[H]N=C(N([H])[H])N([H])C([H])([H])C([H])([H])C([H])([H])[C@@]([H])(C(=O)O[H])N([H])C(=O)[C@@]([H])(N([H])C(=O)c1c([H])c([H])c(OC([H])([H])[C@@]([H])(C(=N[H])N([H])[H])N([H])c2c([H])c([H])c3nc([H])c([H])c([H])c3c2[H])c(C([H])([H])[H])c1[H])C([H])([H])C(=O)O[H]


 58 60  0  0  0  0  0  0  0  0999 V2000
    4.3964  -51.1632  -22.9164 C   0  0  0  0  0  0  0  0  0  0  0  0
    5.5016  -51.7489  -22.9167 O   0  0  0  0  0  0  0  0  0  0  0  0
    3.9400  -50.3980  -21.8217 N   0  0  0  0  0  0  0  0  0  0  0  0
    3.0167  -49.9392  -21.8679 H   0  0  0  0  0  0  0  0  0  0  0  0
    3.2417  -53.4160  -27.1767 C   0  0  0  0  0  0  0  0  0  0  0  0
    3.0226  -52.3754  -26.1548 C   0  0  0  0  0  0  0  0  0  0  0  0
    3.7983  -52.2760  -25.0441 C   0  0  0  0  0  0  0  0  0  0  0  0
    3.5718  -51.2933  -24.0968 C   0  0  0  0  0  0  0  0  0  0  0  0
    2.5349  -50.4165  -24.3144 C   0  0  0  0  0  0  0  0  0  0  0  0
    1.7405  -50.5073  -25.4393 C   0  0  0  0  0  0  0  0  0  0  0  0
    1.9530  -51.4722  -26.3797 C   0  0  0  0  0  0  0  0  0  0  0  0
    1.2136  -51.6162  -27.5083 O   0  0  0  0  0  0  0  0  0  0  0  0
    0.1679  -52.3726  -27.8905 C   0  0  0  0  0  0  0  0  0  0  0  0
   -0.8843  -52.5413  -26.8657 C   0  0  0  0  0  0  0  0  0  0  0  0
   -2.2692  -52.5070  -27.4872 C   0  0  0  0  0  0  0  0  0  0  0  0
   -2.3954  -53.0558  -28.7848 N   0  0  0  0  0  0  0  0  0  0  0  0
   -3.2277  -52.0158  -26.8491 N   0  0  0  0  0  0  0  0  0  0  0  0
   -1.6175  -53.1121  -29.4800 H   0  0  0  0  0  0  0  0  0  0  0  0
   -3.3162  -53.4548  -29.1366 H   0  0  0  0  0  0  0  0  0  0  0  0
   -3.1714  -51.6154  -25.9078 H   0  0  0  0  0  0  0  0  0  0  0  0
   -0.7883  -53.6572  -25.9750 N   0  0  0  0  0  0  0  0  0  0  0  0
   -0.7661  -54.6506  -26.4358 H   0  0  0  0  0  0  0  0  0  0  0  0
   -0.7198  -53.7195  -24.5755 C   0  0  0  0  0  0  0  0  0  0  0  0
   -1.1225  -54.9034  -23.9108 C   0  0  0  0  0  0  0  0  0  0  0  0
   -1.1048  -55.0085  -22.5481 C   0  0  0  0  0  0  0  0  0  0  0  0
   -0.6878  -53.9473  -21.7700 C   0  0  0  0  0  0  0  0  0  0  0  0
   -0.6577  -54.0090  -20.4245 N   0  0  0  0  0  0  0  0  0  0  0  0
   -0.2465  -52.9476  -19.6839 C   0  0  0  0  0  0  0  0  0  0  0  0
    0.1565  -51.7714  -20.2643 C   0  0  0  0  0  0  0  0  0  0  0  0
    0.1302  -51.6995  -21.6539 C   0  0  0  0  0  0  0  0  0  0  0  0
   -0.2910  -52.7843  -22.3761 C   0  0  0  0  0  0  0  0  0  0  0  0
   -0.3211  -52.7113  -23.7667 C   0  0  0  0  0  0  0  0  0  0  0  0
    4.8020  -50.2934  -20.6664 C   0  0  0  0  0  0  0  0  0  0  0  0
    3.9887  -50.5400  -19.4551 C   0  0  0  0  0  0  0  0  0  0  0  0
    3.5548  -51.6958  -19.2477 O   0  0  0  0  0  0  0  0  0  0  0  0
    3.6661  -49.5483  -18.5097 N   0  0  0  0  0  0  0  0  0  0  0  0
    4.0210  -48.5823  -18.6655 H   0  0  0  0  0  0  0  0  0  0  0  0
    2.8722  -49.7858  -17.3310 C   0  0  0  0  0  0  0  0  0  0  0  0
    1.4670  -49.4424  -17.6744 C   0  0  0  0  0  0  0  0  0  0  0  0
    1.1704  -48.7274  -18.8254 O   0  0  0  0  0  0  0  0  0  0  0  0
    0.4845  -49.7735  -16.9525 O   0  0  0  0  0  0  0  0  0  0  0  0
    0.6102  -49.1930  -19.5500 H   0  0  0  0  0  0  0  0  0  0  0  0
    3.3467  -49.0166  -16.1174 C   0  0  0  0  0  0  0  0  0  0  0  0
    3.1988  -47.5339  -16.2949 C   0  0  0  0  0  0  0  0  0  0  0  0
    2.2969  -47.0464  -15.1512 C   0  0  0  0  0  0  0  0  0  0  0  0
    2.4542  -47.9091  -14.0143 N   0  0  0  0  0  0  0  0  0  0  0  0
    3.2692  -48.5484  -13.9695 H   0  0  0  0  0  0  0  0  0  0  0  0
    1.4979  -47.8700  -12.9860 C   0  0  0  0  0  0  0  0  0  0  0  0
    0.5289  -48.8978  -12.7996 N   0  0  0  0  0  0  0  0  0  0  0  0
    1.5059  -46.8417  -12.1724 N   0  0  0  0  0  0  0  0  0  0  0  0
    0.2070  -49.1272  -11.8423 H   0  0  0  0  0  0  0  0  0  0  0  0
    0.1351  -49.4265  -13.6162 H   0  0  0  0  0  0  0  0  0  0  0  0
    2.1956  -46.0811  -12.2827 H   0  0  0  0  0  0  0  0  0  0  0  0
    5.5314  -48.9840  -20.6033 C   0  0  0  0  0  0  0  0  0  0  0  0
    4.8108  -47.8674  -21.2541 C   0  0  0  0  0  0  0  0  0  0  0  0
    3.9588  -47.0621  -20.4905 O   0  0  0  0  0  0  0  0  0  0  0  0
    4.9082  -47.5779  -22.4748 O   0  0  0  0  0  0  0  0  0  0  0  0
    2.9885  -47.0327  -20.7257 H   0  0  0  0  0  0  0  0  0  0  0  0
  5  6  1  0  0  0
  6  7  2  0  0  0
  7  8  1  0  0  0
  8  9  2  0  0  0
  9 10  1  0  0  0
 10 11  2  0  0  0
 11 12  1  0  0  0
 12 13  1  0  0  0
 13 14  1  0  0  0
 14 21  1  0  0  0
 21 23  1  0  0  0
 23 24  2  0  0  0
 24 25  1  0  0  0
 25 26  2  0  0  0
 26 27  1  0  0  0
 27 28  2  0  0  0
 28 29  1  0  0  0
 29 30  2  0  0  0
 30 31  1  0  0  0
 31 32  2  0  0  0
 14 15  1  0  0  0
 15 16  1  0  0  0
 15 17  2  0  0  0
  8  1  1  0  0  0
  1  2  2  0  0  0
  1  3  1  0  0  0
  3 33  1  0  0  0
 33 54  1  0  0  0
 54 55  1  0  0  0
 55 56  1  0  0  0
 55 57  2  0  0  0
 33 34  1  0  0  0
 34 35  2  0  0  0
 34 36  1  0  0  0
 36 38  1  0  0  0
 38 43  1  0  0  0
 43 44  1  0  0  0
 44 45  1  0  0  0
 45 46  1  0  0  0
 46 48  1  0  0  0
 48 49  1  0  0  0
 48 50  2  0  0  0
 38 39  1  0  0  0
 39 40  1  0  0  0
 39 41  2  0  0  0
 11  6  1  0  0  0
 32 23  1  0  0  0
 31 26  1  0  0  0
 21 22  1  0  0  0
 16 18  1  0  0  0
 16 19  1  0  0  0
 17 20  1  0  0  0
  3  4  1  0  0  0
 56 58  1  0  0  0
 36 37  1  0  0  0
 46 47  1  0  0  0
 49 51  1  0  0  0
 49 52  1  0  0  0
 50 53  1  0  0  0
 40 42  1  0  0  0
M  END
> <minimizedAffinity>
-6.75765

> <CNNscore>
0.1260489523

> <CNNaffinity>
6.4494376183

> <CNN_VS>
0.8129448295

> <CNNaffinity_variance>
0.1855763048

$$$$
[H]N=C(N([H])[H])N([H])C([H])([H])C([H])([H])C([H])([H])[C@@]([H])(C(=O)O[H])N([H])C(=O)[C@@]([H])(N([H])C(=O)c1c([H])c([H])c(OC([H])([H])[C@@]([H])(C(=N[H])N([H])[H])N([H])c2c([H])c([H])c3nc([H])c([H])c([H])c3c2[H])c(C([H])([H])[H])c1[H])C([H])([H])C(=O)O[H]


 58 60  0  0  0  0  0  0  0  0999 V2000
    4.2026  -50.3883  -21.8550 C   0  0  0  0  0  0  0  0  0  0  0  0
    5.3317  -50.7148  -21.4273 O   0  0  0  0  0  0  0  0  0  0  0  0
    3.3233  -49.5577  -21.1275 N   0  0  0  0  0  0  0  0  0  0  0  0
    2.3988  -49.3224  -21.5212 H   0  0  0  0  0  0  0  0  0  0  0  0
    2.9526  -49.6846  -26.5985 C   0  0  0  0  0  0  0  0  0  0  0  0
    3.1950  -50.5550  -25.4327 C   0  0  0  0  0  0  0  0  0  0  0  0
    3.5810  -50.0612  -24.2276 C   0  0  0  0  0  0  0  0  0  0  0  0
    3.8060  -50.8976  -23.1487 C   0  0  0  0  0  0  0  0  0  0  0  0
    3.6257  -52.2484  -23.3329 C   0  0  0  0  0  0  0  0  0  0  0  0
    3.2332  -52.7616  -24.5525 C   0  0  0  0  0  0  0  0  0  0  0  0
    3.0094  -51.9477  -25.6239 C   0  0  0  0  0  0  0  0  0  0  0  0
    2.6194  -52.3845  -26.8479 O   0  0  0  0  0  0  0  0  0  0  0  0
    1.6887  -53.2337  -27.3214 C   0  0  0  0  0  0  0  0  0  0  0  0
    0.2909  -52.7871  -27.1412 C   0  0  0  0  0  0  0  0  0  0  0  0
   -0.4377  -52.7072  -28.4708 C   0  0  0  0  0  0  0  0  0  0  0  0
   -1.8487  -52.6229  -28.4164 N   0  0  0  0  0  0  0  0  0  0  0  0
    0.2129  -52.7112  -29.5403 N   0  0  0  0  0  0  0  0  0  0  0  0
   -2.4321  -52.9919  -27.6322 H   0  0  0  0  0  0  0  0  0  0  0  0
   -2.4124  -52.1650  -29.1931 H   0  0  0  0  0  0  0  0  0  0  0  0
    1.2332  -52.7662  -29.6145 H   0  0  0  0  0  0  0  0  0  0  0  0
   -0.5239  -53.4813  -26.1913 N   0  0  0  0  0  0  0  0  0  0  0  0
   -1.3254  -54.1067  -26.5988 H   0  0  0  0  0  0  0  0  0  0  0  0
   -0.4902  -53.5079  -24.7895 C   0  0  0  0  0  0  0  0  0  0  0  0
   -0.8987  -54.6787  -24.1054 C   0  0  0  0  0  0  0  0  0  0  0  0
   -0.9145  -54.7497  -22.7405 C   0  0  0  0  0  0  0  0  0  0  0  0
   -0.5271  -53.6653  -21.9792 C   0  0  0  0  0  0  0  0  0  0  0  0
   -0.5305  -53.6932  -20.6322 N   0  0  0  0  0  0  0  0  0  0  0  0
   -0.1480  -52.6096  -19.9085 C   0  0  0  0  0  0  0  0  0  0  0  0
    0.2587  -51.4444  -20.5081 C   0  0  0  0  0  0  0  0  0  0  0  0
    0.2669  -51.4074  -21.8993 C   0  0  0  0  0  0  0  0  0  0  0  0
   -0.1258  -52.5140  -22.6042 C   0  0  0  0  0  0  0  0  0  0  0  0
   -0.1214  -52.4759  -23.9965 C   0  0  0  0  0  0  0  0  0  0  0  0
    3.7667  -49.0693  -19.8415 C   0  0  0  0  0  0  0  0  0  0  0  0
    4.7728  -48.0082  -20.0684 C   0  0  0  0  0  0  0  0  0  0  0  0
    5.8617  -48.0713  -19.4542 O   0  0  0  0  0  0  0  0  0  0  0  0
    4.5831  -46.9188  -20.9394 N   0  0  0  0  0  0  0  0  0  0  0  0
    3.6843  -46.8523  -21.4600 H   0  0  0  0  0  0  0  0  0  0  0  0
    5.5604  -45.8831  -21.1597 C   0  0  0  0  0  0  0  0  0  0  0  0
    4.8947  -44.5857  -20.8703 C   0  0  0  0  0  0  0  0  0  0  0  0
    3.7390  -44.2139  -21.5412 O   0  0  0  0  0  0  0  0  0  0  0  0
    5.3347  -43.7650  -20.0165 O   0  0  0  0  0  0  0  0  0  0  0  0
    2.8782  -44.1030  -20.9915 H   0  0  0  0  0  0  0  0  0  0  0  0
    6.1550  -45.8992  -22.5511 C   0  0  0  0  0  0  0  0  0  0  0  0
    7.4316  -46.6857  -22.6110 C   0  0  0  0  0  0  0  0  0  0  0  0
    7.2796  -47.6740  -23.7769 C   0  0  0  0  0  0  0  0  0  0  0  0
    7.1413  -49.0070  -23.2617 N   0  0  0  0  0  0  0  0  0  0  0  0
    6.6272  -49.1588  -22.3742 H   0  0  0  0  0  0  0  0  0  0  0  0
    7.7080  -50.0789  -23.9713 C   0  0  0  0  0  0  0  0  0  0  0  0
    8.6242  -49.8889  -25.0457 N   0  0  0  0  0  0  0  0  0  0  0  0
    7.3723  -51.2977  -23.6233 N   0  0  0  0  0  0  0  0  0  0  0  0
    9.3753  -50.5843  -25.2040 H   0  0  0  0  0  0  0  0  0  0  0  0
    8.5509  -49.0562  -25.6802 H   0  0  0  0  0  0  0  0  0  0  0  0
    6.7103  -51.4669  -22.8490 H   0  0  0  0  0  0  0  0  0  0  0  0
    4.2845  -50.1616  -18.9532 C   0  0  0  0  0  0  0  0  0  0  0  0
    3.3652  -50.5204  -17.8506 C   0  0  0  0  0  0  0  0  0  0  0  0
    2.0655  -50.0024  -17.8440 O   0  0  0  0  0  0  0  0  0  0  0  0
    3.6704  -51.2766  -16.8922 O   0  0  0  0  0  0  0  0  0  0  0  0
    1.7863  -49.4177  -17.0838 H   0  0  0  0  0  0  0  0  0  0  0  0
  5  6  1  0  0  0
  6  7  2  0  0  0
  7  8  1  0  0  0
  8  9  2  0  0  0
  9 10  1  0  0  0
 10 11  2  0  0  0
 11 12  1  0  0  0
 12 13  1  0  0  0
 13 14  1  0  0  0
 14 21  1  0  0  0
 21 23  1  0  0  0
 23 24  2  0  0  0
 24 25  1  0  0  0
 25 26  2  0  0  0
 26 27  1  0  0  0
 27 28  2  0  0  0
 28 29  1  0  0  0
 29 30  2  0  0  0
 30 31  1  0  0  0
 31 32  2  0  0  0
 14 15  1  0  0  0
 15 16  1  0  0  0
 15 17  2  0  0  0
  8  1  1  0  0  0
  1  2  2  0  0  0
  1  3  1  0  0  0
  3 33  1  0  0  0
 33 54  1  0  0  0
 54 55  1  0  0  0
 55 56  1  0  0  0
 55 57  2  0  0  0
 33 34  1  0  0  0
 34 35  2  0  0  0
 34 36  1  0  0  0
 36 38  1  0  0  0
 38 43  1  0  0  0
 43 44  1  0  0  0
 44 45  1  0  0  0
 45 46  1  0  0  0
 46 48  1  0  0  0
 48 49  1  0  0  0
 48 50  2  0  0  0
 38 39  1  0  0  0
 39 40  1  0  0  0
 39 41  2  0  0  0
 11  6  1  0  0  0
 32 23  1  0  0  0
 31 26  1  0  0  0
 21 22  1  0  0  0
 16 18  1  0  0  0
 16 19  1  0  0  0
 17 20  1  0  0  0
  3  4  1  0  0  0
 56 58  1  0  0  0
 36 37  1  0  0  0
 46 47  1  0  0  0
 49 51  1  0  0  0
 49 52  1  0  0  0
 50 53  1  0  0  0
 40 42  1  0  0  0
M  END
> <minimizedAffinity>
-7.35117

> <CNNscore>
0.1167237908

> <CNNaffinity>
6.4676399231

> <CNN_VS>
0.7549274564

> <CNNaffinity_variance>
0.7171342969

$$$$
[H]N=C(N([H])[H])N([H])C([H])([H])C([H])([H])C([H])([H])[C@@]([H])(C(=O)O[H])N([H])C(=O)[C@@]([H])(N([H])C(=O)c1c([H])c([H])c(OC([H])([H])[C@@]([H])(C(=N[H])N([H])[H])N([H])c2c([H])c([H])c3nc([H])c([H])c([H])c3c2[H])c(C([H])([H])[H])c1[H])C([H])([H])C(=O)O[H]


 58 60  0  0  0  0  0  0  0  0999 V2000
    4.6056  -50.6894  -21.7066 C   0  0  0  0  0  0  0  0  0  0  0  0
    5.7945  -51.0277  -21.5163 O   0  0  0  0  0  0  0  0  0  0  0  0
    3.8512  -49.9832  -20.7451 N   0  0  0  0  0  0  0  0  0  0  0  0
    2.8707  -49.7326  -20.9476 H   0  0  0  0  0  0  0  0  0  0  0  0
    2.7654  -49.4680  -26.1429 C   0  0  0  0  0  0  0  0  0  0  0  0
    3.1082  -50.4580  -25.1048 C   0  0  0  0  0  0  0  0  0  0  0  0
    3.6871  -50.1034  -23.9283 C   0  0  0  0  0  0  0  0  0  0  0  0
    4.0030  -51.0503  -22.9703 C   0  0  0  0  0  0  0  0  0  0  0  0
    3.7116  -52.3659  -23.2452 C   0  0  0  0  0  0  0  0  0  0  0  0
    3.1230  -52.7381  -24.4367 C   0  0  0  0  0  0  0  0  0  0  0  0
    2.8078  -51.8143  -25.3894 C   0  0  0  0  0  0  0  0  0  0  0  0
    2.2261  -52.1102  -26.5790 O   0  0  0  0  0  0  0  0  0  0  0  0
    1.3386  -53.0196  -27.0228 C   0  0  0  0  0  0  0  0  0  0  0  0
   -0.0751  -52.5919  -26.9566 C   0  0  0  0  0  0  0  0  0  0  0  0
   -0.7656  -52.7621  -28.2980 C   0  0  0  0  0  0  0  0  0  0  0  0
    0.0717  -52.8632  -29.4337 N   0  0  0  0  0  0  0  0  0  0  0  0
   -2.0152  -52.8130  -28.3548 N   0  0  0  0  0  0  0  0  0  0  0  0
    1.0318  -52.4561  -29.4971 H   0  0  0  0  0  0  0  0  0  0  0  0
   -0.2374  -53.3751  -30.3130 H   0  0  0  0  0  0  0  0  0  0  0  0
   -2.6491  -52.7479  -27.5527 H   0  0  0  0  0  0  0  0  0  0  0  0
   -0.8995  -53.1387  -25.9226 N   0  0  0  0  0  0  0  0  0  0  0  0
   -1.8842  -53.5096  -26.2266 H   0  0  0  0  0  0  0  0  0  0  0  0
   -0.6773  -53.2895  -24.5460 C   0  0  0  0  0  0  0  0  0  0  0  0
   -0.8858  -54.5530  -23.9414 C   0  0  0  0  0  0  0  0  0  0  0  0
   -0.7134  -54.7492  -22.5997 C   0  0  0  0  0  0  0  0  0  0  0  0
   -0.3256  -53.7052  -21.7842 C   0  0  0  0  0  0  0  0  0  0  0  0
   -0.1471  -53.8559  -20.4574 N   0  0  0  0  0  0  0  0  0  0  0  0
    0.2310  -52.8097  -19.6785 C   0  0  0  0  0  0  0  0  0  0  0  0
    0.4496  -51.5596  -20.2000 C   0  0  0  0  0  0  0  0  0  0  0  0
    0.2692  -51.3953  -21.5702 C   0  0  0  0  0  0  0  0  0  0  0  0
   -0.1145  -52.4671  -22.3317 C   0  0  0  0  0  0  0  0  0  0  0  0
   -0.2989  -52.3021  -23.7024 C   0  0  0  0  0  0  0  0  0  0  0  0
    4.4988  -49.6404  -19.4993 C   0  0  0  0  0  0  0  0  0  0  0  0
    3.6998  -50.2046  -18.3889 C   0  0  0  0  0  0  0  0  0  0  0  0
    3.5080  -51.4412  -18.3545 O   0  0  0  0  0  0  0  0  0  0  0  0
    3.1337  -49.4328  -17.3568 N   0  0  0  0  0  0  0  0  0  0  0  0
    3.2857  -48.4032  -17.3688 H   0  0  0  0  0  0  0  0  0  0  0  0
    2.3533  -49.9800  -16.2762 C   0  0  0  0  0  0  0  0  0  0  0  0
    3.3090  -50.5734  -15.3041 C   0  0  0  0  0  0  0  0  0  0  0  0
    4.2873  -49.7953  -14.7030 O   0  0  0  0  0  0  0  0  0  0  0  0
    3.2860  -51.7938  -14.9783 O   0  0  0  0  0  0  0  0  0  0  0  0
    4.2446  -49.6711  -13.6840 H   0  0  0  0  0  0  0  0  0  0  0  0
    1.3245  -50.9941  -16.7267 C   0  0  0  0  0  0  0  0  0  0  0  0
   -0.0782  -50.5330  -16.4589 C   0  0  0  0  0  0  0  0  0  0  0  0
   -0.4065  -50.9517  -15.0181 C   0  0  0  0  0  0  0  0  0  0  0  0
    0.1211  -52.2633  -14.7670 N   0  0  0  0  0  0  0  0  0  0  0  0
    0.3636  -52.8760  -15.5674 H   0  0  0  0  0  0  0  0  0  0  0  0
    0.2961  -52.6897  -13.4399 C   0  0  0  0  0  0  0  0  0  0  0  0
    1.5755  -53.0038  -12.8973 N   0  0  0  0  0  0  0  0  0  0  0  0
   -0.7669  -52.8007  -12.6804 N   0  0  0  0  0  0  0  0  0  0  0  0
    1.7636  -52.8191  -11.8956 H   0  0  0  0  0  0  0  0  0  0  0  0
    2.3310  -53.4199  -13.4952 H   0  0  0  0  0  0  0  0  0  0  0  0
   -1.7074  -52.5805  -13.0457 H   0  0  0  0  0  0  0  0  0  0  0  0
    4.7194  -48.1645  -19.3469 C   0  0  0  0  0  0  0  0  0  0  0  0
    3.7059  -47.3352  -20.0359 C   0  0  0  0  0  0  0  0  0  0  0  0
    2.3632  -47.4342  -19.6550 O   0  0  0  0  0  0  0  0  0  0  0  0
    3.9655  -46.5252  -20.9631 O   0  0  0  0  0  0  0  0  0  0  0  0
    1.6951  -47.7440  -20.3296 H   0  0  0  0  0  0  0  0  0  0  0  0
  5  6  1  0  0  0
  6  7  2  0  0  0
  7  8  1  0  0  0
  8  9  2  0  0  0
  9 10  1  0  0  0
 10 11  2  0  0  0
 11 12  1  0  0  0
 12 13  1  0  0  0
 13 14  1  0  0  0
 14 21  1  0  0  0
 21 23  1  0  0  0
 23 24  2  0  0  0
 24 25  1  0  0  0
 25 26  2  0  0  0
 26 27  1  0  0  0
 27 28  2  0  0  0
 28 29  1  0  0  0
 29 30  2  0  0  0
 30 31  1  0  0  0
 31 32  2  0  0  0
 14 15  1  0  0  0
 15 16  1  0  0  0
 15 17  2  0  0  0
  8  1  1  0  0  0
  1  2  2  0  0  0
  1  3  1  0  0  0
  3 33  1  0  0  0
 33 54  1  0  0  0
 54 55  1  0  0  0
 55 56  1  0  0  0
 55 57  2  0  0  0
 33 34  1  0  0  0
 34 35  2  0  0  0
 34 36  1  0  0  0
 36 38  1  0  0  0
 38 43  1  0  0  0
 43 44  1  0  0  0
 44 45  1  0  0  0
 45 46  1  0  0  0
 46 48  1  0  0  0
 48 49  1  0  0  0
 48 50  2  0  0  0
 38 39  1  0  0  0
 39 40  1  0  0  0
 39 41  2  0  0  0
 11  6  1  0  0  0
 32 23  1  0  0  0
 31 26  1  0  0  0
 21 22  1  0  0  0
 16 18  1  0  0  0
 16 19  1  0  0  0
 17 20  1  0  0  0
  3  4  1  0  0  0
 56 58  1  0  0  0
 36 37  1  0  0  0
 46 47  1  0  0  0
 49 51  1  0  0  0
 49 52  1  0  0  0
 50 53  1  0  0  0
 40 42  1  0  0  0
M  END
> <minimizedAffinity>
-7.71050

> <CNNscore>
0.1066839024

> <CNNaffinity>
6.2299489975

> <CNN_VS>
0.6646353006

> <CNNaffinity_variance>
1.1681265831

$$$$
[H]N=C(N([H])[H])N([H])C([H])([H])C([H])([H])C([H])([H])[C@@]([H])(C(=O)O[H])N([H])C(=O)[C@@]([H])(N([H])C(=O)c1c([H])c([H])c(OC([H])([H])[C@@]([H])(C(=N[H])N([H])[H])N([H])c2c([H])c([H])c3nc([H])c([H])c([H])c3c2[H])c(C([H])([H])[H])c1[H])C([H])([H])C(=O)O[H]


 58 60  0  0  0  0  0  0  0  0999 V2000
    6.3159  -48.3833  -25.0196 C   0  0  0  0  0  0  0  0  0  0  0  0
    6.8864  -47.4186  -24.4645 O   0  0  0  0  0  0  0  0  0  0  0  0
    6.4711  -48.6730  -26.3923 N   0  0  0  0  0  0  0  0  0  0  0  0
    5.9732  -49.4774  -26.8047 H   0  0  0  0  0  0  0  0  0  0  0  0
    4.8930  -52.8372  -23.3774 C   0  0  0  0  0  0  0  0  0  0  0  0
    4.7771  -51.3674  -23.4162 C   0  0  0  0  0  0  0  0  0  0  0  0
    5.5922  -50.5963  -24.1818 C   0  0  0  0  0  0  0  0  0  0  0  0
    5.4671  -49.2185  -24.1996 C   0  0  0  0  0  0  0  0  0  0  0  0
    4.4890  -48.6509  -23.4171 C   0  0  0  0  0  0  0  0  0  0  0  0
    3.6546  -49.4241  -22.6357 C   0  0  0  0  0  0  0  0  0  0  0  0
    3.7686  -50.7831  -22.6087 C   0  0  0  0  0  0  0  0  0  0  0  0
    2.9808  -51.6022  -21.8672 O   0  0  0  0  0  0  0  0  0  0  0  0
    1.7424  -51.5407  -21.3437 C   0  0  0  0  0  0  0  0  0  0  0  0
    0.8016  -52.5616  -21.8519 C   0  0  0  0  0  0  0  0  0  0  0  0
   -0.0566  -53.1254  -20.7335 C   0  0  0  0  0  0  0  0  0  0  0  0
   -0.5806  -54.4245  -20.9299 N   0  0  0  0  0  0  0  0  0  0  0  0
   -0.2617  -52.4469  -19.7016 N   0  0  0  0  0  0  0  0  0  0  0  0
   -0.7657  -54.8510  -21.8655 H   0  0  0  0  0  0  0  0  0  0  0  0
   -0.8222  -55.0600  -20.1123 H   0  0  0  0  0  0  0  0  0  0  0  0
    0.1061  -51.5070  -19.5261 H   0  0  0  0  0  0  0  0  0  0  0  0
   -0.0295  -52.2207  -22.9659 N   0  0  0  0  0  0  0  0  0  0  0  0
   -0.9951  -51.7592  -22.7328 H   0  0  0  0  0  0  0  0  0  0  0  0
    0.1652  -52.3762  -24.3461 C   0  0  0  0  0  0  0  0  0  0  0  0
    1.4821  -52.4830  -24.8557 C   0  0  0  0  0  0  0  0  0  0  0  0
    1.7312  -52.6058  -26.1941 C   0  0  0  0  0  0  0  0  0  0  0  0
    0.6899  -52.6292  -27.1001 C   0  0  0  0  0  0  0  0  0  0  0  0
    0.8925  -52.7462  -28.4269 N   0  0  0  0  0  0  0  0  0  0  0  0
   -0.1510  -52.7624  -29.2957 C   0  0  0  0  0  0  0  0  0  0  0  0
   -1.4512  -52.6629  -28.8688 C   0  0  0  0  0  0  0  0  0  0  0  0
   -1.6697  -52.5434  -27.4995 C   0  0  0  0  0  0  0  0  0  0  0  0
   -0.5988  -52.5277  -26.6460 C   0  0  0  0  0  0  0  0  0  0  0  0
   -0.8169  -52.4042  -25.2759 C   0  0  0  0  0  0  0  0  0  0  0  0
    7.3339  -47.8125  -27.1694 C   0  0  0  0  0  0  0  0  0  0  0  0
    6.4879  -46.9857  -28.0584 C   0  0  0  0  0  0  0  0  0  0  0  0
    6.9847  -46.5414  -29.1181 O   0  0  0  0  0  0  0  0  0  0  0  0
    5.1453  -46.6614  -27.7872 N   0  0  0  0  0  0  0  0  0  0  0  0
    4.7157  -47.0248  -26.9116 H   0  0  0  0  0  0  0  0  0  0  0  0
    4.3207  -45.8543  -28.6503 C   0  0  0  0  0  0  0  0  0  0  0  0
    3.5132  -44.9639  -27.7754 C   0  0  0  0  0  0  0  0  0  0  0  0
    3.9392  -43.6765  -27.4838 O   0  0  0  0  0  0  0  0  0  0  0  0
    2.4177  -45.3216  -27.2578 O   0  0  0  0  0  0  0  0  0  0  0  0
    3.3622  -42.8927  -27.8128 H   0  0  0  0  0  0  0  0  0  0  0  0
    3.4392  -46.6650  -29.5753 C   0  0  0  0  0  0  0  0  0  0  0  0
    3.5261  -46.1921  -30.9969 C   0  0  0  0  0  0  0  0  0  0  0  0
    4.6710  -46.9814  -31.6489 C   0  0  0  0  0  0  0  0  0  0  0  0
    4.4421  -48.3886  -31.4788 N   0  0  0  0  0  0  0  0  0  0  0  0
    3.4991  -48.7770  -31.6652 H   0  0  0  0  0  0  0  0  0  0  0  0
    5.5021  -49.2103  -31.0608 C   0  0  0  0  0  0  0  0  0  0  0  0
    6.8674  -48.8191  -31.1748 N   0  0  0  0  0  0  0  0  0  0  0  0
    5.2119  -50.3818  -30.5483 N   0  0  0  0  0  0  0  0  0  0  0  0
    7.5502  -49.1388  -30.4647 H   0  0  0  0  0  0  0  0  0  0  0  0
    7.1934  -48.2125  -31.9667 H   0  0  0  0  0  0  0  0  0  0  0  0
    4.2319  -50.6932  -30.4532 H   0  0  0  0  0  0  0  0  0  0  0  0
    8.3808  -48.5729  -27.9283 C   0  0  0  0  0  0  0  0  0  0  0  0
    9.2032  -49.4642  -27.0805 C   0  0  0  0  0  0  0  0  0  0  0  0
    9.4436  -50.7783  -27.4965 O   0  0  0  0  0  0  0  0  0  0  0  0
    9.7176  -49.1221  -25.9843 O   0  0  0  0  0  0  0  0  0  0  0  0
    9.1166  -51.5294  -26.9251 H   0  0  0  0  0  0  0  0  0  0  0  0
  5  6  1  0  0  0
  6  7  2  0  0  0
  7  8  1  0  0  0
  8  9  2  0  0  0
  9 10  1  0  0  0
 10 11  2  0  0  0
 11 12  1  0  0  0
 12 13  1  0  0  0
 13 14  1  0  0  0
 14 21  1  0  0  0
 21 23  1  0  0  0
 23 24  2  0  0  0
 24 25  1  0  0  0
 25 26  2  0  0  0
 26 27  1  0  0  0
 27 28  2  0  0  0
 28 29  1  0  0  0
 29 30  2  0  0  0
 30 31  1  0  0  0
 31 32  2  0  0  0
 14 15  1  0  0  0
 15 16  1  0  0  0
 15 17  2  0  0  0
  8  1  1  0  0  0
  1  2  2  0  0  0
  1  3  1  0  0  0
  3 33  1  0  0  0
 33 54  1  0  0  0
 54 55  1  0  0  0
 55 56  1  0  0  0
 55 57  2  0  0  0
 33 34  1  0  0  0
 34 35  2  0  0  0
 34 36  1  0  0  0
 36 38  1  0  0  0
 38 43  1  0  0  0
 43 44  1  0  0  0
 44 45  1  0  0  0
 45 46  1  0  0  0
 46 48  1  0  0  0
 48 49  1  0  0  0
 48 50  2  0  0  0
 38 39  1  0  0  0
 39 40  1  0  0  0
 39 41  2  0  0  0
 11  6  1  0  0  0
 32 23  1  0  0  0
 31 26  1  0  0  0
 21 22  1  0  0  0
 16 18  1  0  0  0
 16 19  1  0  0  0
 17 20  1  0  0  0
  3  4  1  0  0  0
 56 58  1  0  0  0
 36 37  1  0  0  0
 46 47  1  0  0  0
 49 51  1  0  0  0
 49 52  1  0  0  0
 50 53  1  0  0  0
 40 42  1  0  0  0
M  END
> <minimizedAffinity>
-7.86164

> <CNNscore>
0.1040605903

> <CNNaffinity>
6.5027961731

> <CNN_VS>
0.6766847968

> <CNNaffinity_variance>
0.5895713568

$$$$
[H]N=C(N([H])[H])N([H])C([H])([H])C([H])([H])C([H])([H])[C@@]([H])(C(=O)O[H])N([H])C(=O)[C@@]([H])(N([H])C(=O)c1c([H])c([H])c(OC([H])([H])[C@@]([H])(C(=N[H])N([H])[H])N([H])c2c([H])c([H])c3nc([H])c([H])c([H])c3c2[H])c(C([H])([H])[H])c1[H])C([H])([H])C(=O)O[H]


 58 60  0  0  0  0  0  0  0  0999 V2000
    5.4643  -47.7020  -26.1644 C   0  0  0  0  0  0  0  0  0  0  0  0
    5.6798  -46.4716  -26.2284 O   0  0  0  0  0  0  0  0  0  0  0  0
    5.8576  -48.5982  -27.1815 N   0  0  0  0  0  0  0  0  0  0  0  0
    5.6506  -49.6046  -27.0845 H   0  0  0  0  0  0  0  0  0  0  0  0
    3.1477  -51.3257  -23.7027 C   0  0  0  0  0  0  0  0  0  0  0  0
    3.6570  -49.9457  -23.8102 C   0  0  0  0  0  0  0  0  0  0  0  0
    4.3092  -49.4981  -24.9144 C   0  0  0  0  0  0  0  0  0  0  0  0
    4.7813  -48.1998  -24.9914 C   0  0  0  0  0  0  0  0  0  0  0  0
    4.5690  -47.3729  -23.9134 C   0  0  0  0  0  0  0  0  0  0  0  0
    3.9072  -47.8163  -22.7864 C   0  0  0  0  0  0  0  0  0  0  0  0
    3.4381  -49.0940  -22.6979 C   0  0  0  0  0  0  0  0  0  0  0  0
    2.7774  -49.5935  -21.6231 O   0  0  0  0  0  0  0  0  0  0  0  0
    3.1186  -50.0545  -20.4055 C   0  0  0  0  0  0  0  0  0  0  0  0
    2.0273  -50.0424  -19.4082 C   0  0  0  0  0  0  0  0  0  0  0  0
    1.9946  -48.7313  -18.6433 C   0  0  0  0  0  0  0  0  0  0  0  0
    1.3818  -48.7562  -17.3686 N   0  0  0  0  0  0  0  0  0  0  0  0
    2.5013  -47.7027  -19.1457 N   0  0  0  0  0  0  0  0  0  0  0  0
    0.6402  -49.4347  -17.0835 H   0  0  0  0  0  0  0  0  0  0  0  0
    1.6496  -48.0661  -16.6053 H   0  0  0  0  0  0  0  0  0  0  0  0
    2.9560  -47.6517  -20.0623 H   0  0  0  0  0  0  0  0  0  0  0  0
    0.7058  -50.3718  -19.8476 N   0  0  0  0  0  0  0  0  0  0  0  0
   -0.0693  -49.6173  -19.6755 H   0  0  0  0  0  0  0  0  0  0  0  0
    0.1994  -51.5199  -20.4740 C   0  0  0  0  0  0  0  0  0  0  0  0
   -0.3150  -52.5754  -19.6824 C   0  0  0  0  0  0  0  0  0  0  0  0
   -0.7932  -53.7288  -20.2385 C   0  0  0  0  0  0  0  0  0  0  0  0
   -0.7876  -53.8996  -21.6083 C   0  0  0  0  0  0  0  0  0  0  0  0
   -1.2472  -55.0215  -22.1959 N   0  0  0  0  0  0  0  0  0  0  0  0
   -1.2258  -55.1638  -23.5462 C   0  0  0  0  0  0  0  0  0  0  0  0
   -0.7411  -54.1804  -24.3711 C   0  0  0  0  0  0  0  0  0  0  0  0
   -0.2658  -53.0173  -23.7726 C   0  0  0  0  0  0  0  0  0  0  0  0
   -0.2974  -52.9012  -22.4083 C   0  0  0  0  0  0  0  0  0  0  0  0
    0.1818  -51.7389  -21.8088 C   0  0  0  0  0  0  0  0  0  0  0  0
    6.5419  -48.0537  -28.3321 C   0  0  0  0  0  0  0  0  0  0  0  0
    5.7070  -48.2985  -29.5290 C   0  0  0  0  0  0  0  0  0  0  0  0
    4.7598  -49.1126  -29.4446 O   0  0  0  0  0  0  0  0  0  0  0  0
    5.9108  -47.6693  -30.7715 N   0  0  0  0  0  0  0  0  0  0  0  0
    6.6925  -46.9875  -30.8584 H   0  0  0  0  0  0  0  0  0  0  0  0
    5.1006  -47.9083  -31.9388 C   0  0  0  0  0  0  0  0  0  0  0  0
    5.9728  -48.5628  -32.9494 C   0  0  0  0  0  0  0  0  0  0  0  0
    5.4475  -49.0364  -34.1426 O   0  0  0  0  0  0  0  0  0  0  0  0
    7.2148  -48.7228  -32.7821 O   0  0  0  0  0  0  0  0  0  0  0  0
    5.7675  -48.5999  -35.0159 H   0  0  0  0  0  0  0  0  0  0  0  0
    4.4567  -46.6567  -32.4943 C   0  0  0  0  0  0  0  0  0  0  0  0
    3.3398  -46.1615  -31.6231 C   0  0  0  0  0  0  0  0  0  0  0  0
    3.7976  -44.8101  -31.0545 C   0  0  0  0  0  0  0  0  0  0  0  0
    3.2438  -44.6285  -29.7424 N   0  0  0  0  0  0  0  0  0  0  0  0
    2.2157  -44.5568  -29.6294 H   0  0  0  0  0  0  0  0  0  0  0  0
    4.1082  -44.5499  -28.6378 C   0  0  0  0  0  0  0  0  0  0  0  0
    3.6671  -44.1429  -27.3456 N   0  0  0  0  0  0  0  0  0  0  0  0
    5.3687  -44.8646  -28.8149 N   0  0  0  0  0  0  0  0  0  0  0  0
    4.1127  -44.5493  -26.5035 H   0  0  0  0  0  0  0  0  0  0  0  0
    2.8984  -43.4375  -27.2322 H   0  0  0  0  0  0  0  0  0  0  0  0
    5.7179  -45.1628  -29.7399 H   0  0  0  0  0  0  0  0  0  0  0  0
    7.9323  -48.5942  -28.4899 C   0  0  0  0  0  0  0  0  0  0  0  0
    8.9715  -47.7688  -27.8354 C   0  0  0  0  0  0  0  0  0  0  0  0
    8.5903  -46.6428  -27.0976 O   0  0  0  0  0  0  0  0  0  0  0  0
   10.2055  -48.0083  -27.8923 O   0  0  0  0  0  0  0  0  0  0  0  0
    8.9140  -45.7448  -27.3917 H   0  0  0  0  0  0  0  0  0  0  0  0
  5  6  1  0  0  0
  6  7  2  0  0  0
  7  8  1  0  0  0
  8  9  2  0  0  0
  9 10  1  0  0  0
 10 11  2  0  0  0
 11 12  1  0  0  0
 12 13  1  0  0  0
 13 14  1  0  0  0
 14 21  1  0  0  0
 21 23  1  0  0  0
 23 24  2  0  0  0
 24 25  1  0  0  0
 25 26  2  0  0  0
 26 27  1  0  0  0
 27 28  2  0  0  0
 28 29  1  0  0  0
 29 30  2  0  0  0
 30 31  1  0  0  0
 31 32  2  0  0  0
 14 15  1  0  0  0
 15 16  1  0  0  0
 15 17  2  0  0  0
  8  1  1  0  0  0
  1  2  2  0  0  0
  1  3  1  0  0  0
  3 33  1  0  0  0
 33 54  1  0  0  0
 54 55  1  0  0  0
 55 56  1  0  0  0
 55 57  2  0  0  0
 33 34  1  0  0  0
 34 35  2  0  0  0
 34 36  1  0  0  0
 36 38  1  0  0  0
 38 43  1  0  0  0
 43 44  1  0  0  0
 44 45  1  0  0  0
 45 46  1  0  0  0
 46 48  1  0  0  0
 48 49  1  0  0  0
 48 50  2  0  0  0
 38 39  1  0  0  0
 39 40  1  0  0  0
 39 41  2  0  0  0
 11  6  1  0  0  0
 32 23  1  0  0  0
 31 26  1  0  0  0
 21 22  1  0  0  0
 16 18  1  0  0  0
 16 19  1  0  0  0
 17 20  1  0  0  0
  3  4  1  0  0  0
 56 58  1  0  0  0
 36 37  1  0  0  0
 46 47  1  0  0  0
 49 51  1  0  0  0
 49 52  1  0  0  0
 50 53  1  0  0  0
 40 42  1  0  0  0
M  END
> <minimizedAffinity>
-6.70594

> <CNNscore>
0.1005677506

> <CNNaffinity>
6.2000637054

> <CNN_VS>
0.6235264540

> <CNNaffinity_variance>
0.4896133542

$$$$
[H]N=C(N([H])[H])N([H])C([H])([H])C([H])([H])C([H])([H])[C@@]([H])(C(=O)O[H])N([H])C(=O)[C@@]([H])(N([H])C(=O)c1c([H])c([H])c(OC([H])([H])[C@@]([H])(C(=N[H])N([H])[H])N([H])c2c([H])c([H])c3nc([H])c([H])c([H])c3c2[H])c(C([H])([H])[H])c1[H])C([H])([H])C(=O)O[H]


 58 60  0  0  0  0  0  0  0  0999 V2000
    4.0274  -50.8378  -21.6993 C   0  0  0  0  0  0  0  0  0  0  0  0
    3.7590  -51.6395  -20.7775 O   0  0  0  0  0  0  0  0  0  0  0  0
    4.6598  -49.5969  -21.4697 N   0  0  0  0  0  0  0  0  0  0  0  0
    4.8539  -48.9671  -22.2638 H   0  0  0  0  0  0  0  0  0  0  0  0
    2.7284  -49.6817  -26.3398 C   0  0  0  0  0  0  0  0  0  0  0  0
    3.0279  -50.6615  -25.2789 C   0  0  0  0  0  0  0  0  0  0  0  0
    3.3828  -50.2840  -24.0232 C   0  0  0  0  0  0  0  0  0  0  0  0
    3.6627  -51.2212  -23.0447 C   0  0  0  0  0  0  0  0  0  0  0  0
    3.5697  -52.5512  -23.3821 C   0  0  0  0  0  0  0  0  0  0  0  0
    3.2095  -52.9468  -24.6543 C   0  0  0  0  0  0  0  0  0  0  0  0
    2.9323  -52.0325  -25.6278 C   0  0  0  0  0  0  0  0  0  0  0  0
    2.5697  -52.3516  -26.8959 O   0  0  0  0  0  0  0  0  0  0  0  0
    1.6480  -53.1487  -27.4675 C   0  0  0  0  0  0  0  0  0  0  0  0
    0.2468  -52.7230  -27.2648 C   0  0  0  0  0  0  0  0  0  0  0  0
   -0.5088  -52.6701  -28.5807 C   0  0  0  0  0  0  0  0  0  0  0  0
   -1.9194  -52.6028  -28.4994 N   0  0  0  0  0  0  0  0  0  0  0  0
    0.1207  -52.6804  -29.6628 N   0  0  0  0  0  0  0  0  0  0  0  0
   -2.4825  -52.9684  -27.6989 H   0  0  0  0  0  0  0  0  0  0  0  0
   -2.5040  -52.1624  -29.2708 H   0  0  0  0  0  0  0  0  0  0  0  0
    1.1399  -52.7237  -29.7564 H   0  0  0  0  0  0  0  0  0  0  0  0
   -0.5377  -53.4196  -26.2916 N   0  0  0  0  0  0  0  0  0  0  0  0
   -1.3367  -54.0624  -26.6763 H   0  0  0  0  0  0  0  0  0  0  0  0
   -0.4761  -53.4301  -24.8904 C   0  0  0  0  0  0  0  0  0  0  0  0
   -0.8025  -54.6158  -24.1881 C   0  0  0  0  0  0  0  0  0  0  0  0
   -0.7883  -54.6737  -22.8226 C   0  0  0  0  0  0  0  0  0  0  0  0
   -0.4506  -53.5610  -22.0787 C   0  0  0  0  0  0  0  0  0  0  0  0
   -0.4269  -53.5754  -20.7317 N   0  0  0  0  0  0  0  0  0  0  0  0
   -0.0947  -52.4643  -20.0253 C   0  0  0  0  0  0  0  0  0  0  0  0
    0.2319  -51.2834  -20.6431 C   0  0  0  0  0  0  0  0  0  0  0  0
    0.2116  -51.2600  -22.0345 C   0  0  0  0  0  0  0  0  0  0  0  0
   -0.1291  -52.3946  -22.7216 C   0  0  0  0  0  0  0  0  0  0  0  0
   -0.1532  -52.3705  -24.1141 C   0  0  0  0  0  0  0  0  0  0  0  0
    5.0096  -49.2604  -20.1083 C   0  0  0  0  0  0  0  0  0  0  0  0
    4.1670  -48.1222  -19.6792 C   0  0  0  0  0  0  0  0  0  0  0  0
    2.9650  -48.3352  -19.4020 O   0  0  0  0  0  0  0  0  0  0  0  0
    4.6338  -46.7994  -19.5616 N   0  0  0  0  0  0  0  0  0  0  0  0
    5.6314  -46.6051  -19.7858 H   0  0  0  0  0  0  0  0  0  0  0  0
    3.8144  -45.6893  -19.1465 C   0  0  0  0  0  0  0  0  0  0  0  0
    3.9327  -44.6427  -20.1957 C   0  0  0  0  0  0  0  0  0  0  0  0
    3.7541  -43.3023  -19.8868 O   0  0  0  0  0  0  0  0  0  0  0  0
    4.1955  -44.9086  -21.4025 O   0  0  0  0  0  0  0  0  0  0  0  0
    4.5565  -42.6711  -20.0015 H   0  0  0  0  0  0  0  0  0  0  0  0
    4.1791  -45.1457  -17.7822 C   0  0  0  0  0  0  0  0  0  0  0  0
    4.9366  -46.1462  -16.9594 C   0  0  0  0  0  0  0  0  0  0  0  0
    4.2047  -46.2457  -15.6128 C   0  0  0  0  0  0  0  0  0  0  0  0
    3.1872  -47.2557  -15.6925 N   0  0  0  0  0  0  0  0  0  0  0  0
    2.1969  -46.9722  -15.8093 H   0  0  0  0  0  0  0  0  0  0  0  0
    3.5558  -48.6087  -15.6085 C   0  0  0  0  0  0  0  0  0  0  0  0
    3.1573  -49.5741  -16.5777 N   0  0  0  0  0  0  0  0  0  0  0  0
    4.2946  -48.9869  -14.5935 N   0  0  0  0  0  0  0  0  0  0  0  0
    3.7890  -50.3643  -16.7995 H   0  0  0  0  0  0  0  0  0  0  0  0
    2.2338  -49.4986  -17.0705 H   0  0  0  0  0  0  0  0  0  0  0  0
    4.5986  -48.3102  -13.8751 H   0  0  0  0  0  0  0  0  0  0  0  0
    6.4731  -48.9791  -19.9379 C   0  0  0  0  0  0  0  0  0  0  0  0
    7.1618  -48.6165  -21.1964 C   0  0  0  0  0  0  0  0  0  0  0  0
    6.9240  -47.3641  -21.7732 O   0  0  0  0  0  0  0  0  0  0  0  0
    7.9673  -49.3680  -21.8045 O   0  0  0  0  0  0  0  0  0  0  0  0
    6.5205  -47.3256  -22.6860 H   0  0  0  0  0  0  0  0  0  0  0  0
  5  6  1  0  0  0
  6  7  2  0  0  0
  7  8  1  0  0  0
  8  9  2  0  0  0
  9 10  1  0  0  0
 10 11  2  0  0  0
 11 12  1  0  0  0
 12 13  1  0  0  0
 13 14  1  0  0  0
 14 21  1  0  0  0
 21 23  1  0  0  0
 23 24  2  0  0  0
 24 25  1  0  0  0
 25 26  2  0  0  0
 26 27  1  0  0  0
 27 28  2  0  0  0
 28 29  1  0  0  0
 29 30  2  0  0  0
 30 31  1  0  0  0
 31 32  2  0  0  0
 14 15  1  0  0  0
 15 16  1  0  0  0
 15 17  2  0  0  0
  8  1  1  0  0  0
  1  2  2  0  0  0
  1  3  1  0  0  0
  3 33  1  0  0  0
 33 54  1  0  0  0
 54 55  1  0  0  0
 55 56  1  0  0  0
 55 57  2  0  0  0
 33 34  1  0  0  0
 34 35  2  0  0  0
 34 36  1  0  0  0
 36 38  1  0  0  0
 38 43  1  0  0  0
 43 44  1  0  0  0
 44 45  1  0  0  0
 45 46  1  0  0  0
 46 48  1  0  0  0
 48 49  1  0  0  0
 48 50  2  0  0  0
 38 39  1  0  0  0
 39 40  1  0  0  0
 39 41  2  0  0  0
 11  6  1  0  0  0
 32 23  1  0  0  0
 31 26  1  0  0  0
 21 22  1  0  0  0
 16 18  1  0  0  0
 16 19  1  0  0  0
 17 20  1  0  0  0
  3  4  1  0  0  0
 56 58  1  0  0  0
 36 37  1  0  0  0
 46 47  1  0  0  0
 49 51  1  0  0  0
 49 52  1  0  0  0
 50 53  1  0  0  0
 40 42  1  0  0  0
M  END
> <minimizedAffinity>
-6.70315

> <CNNscore>
0.0988469198

> <CNNaffinity>
6.4684171677

> <CNN_VS>
0.6393831372

> <CNNaffinity_variance>
0.3161475658

$$$$
[H]N=C(N([H])[H])N([H])C([H])([H])C([H])([H])C([H])([H])[C@@]([H])(C(=O)O[H])N([H])C(=O)[C@@]([H])(N([H])C(=O)c1c([H])c([H])c(OC([H])([H])[C@@]([H])(C(=N[H])N([H])[H])N([H])c2c([H])c([H])c3nc([H])c([H])c([H])c3c2[H])c(C([H])([H])[H])c1[H])C([H])([H])C(=O)O[H]


 58 60  0  0  0  0  0  0  0  0999 V2000
    3.2266  -49.8076  -25.3631 C   0  0  0  0  0  0  0  0  0  0  0  0
    2.7726  -50.4201  -26.3546 O   0  0  0  0  0  0  0  0  0  0  0  0
    4.1274  -48.7273  -25.4818 N   0  0  0  0  0  0  0  0  0  0  0  0
    4.4786  -48.2586  -24.6321 H   0  0  0  0  0  0  0  0  0  0  0  0
    1.0010  -48.9581  -21.0176 C   0  0  0  0  0  0  0  0  0  0  0  0
    1.7311  -49.8305  -21.9563 C   0  0  0  0  0  0  0  0  0  0  0  0
    2.1155  -49.4077  -23.1886 C   0  0  0  0  0  0  0  0  0  0  0  0
    2.7967  -50.2452  -24.0539 C   0  0  0  0  0  0  0  0  0  0  0  0
    3.0748  -51.5227  -23.6275 C   0  0  0  0  0  0  0  0  0  0  0  0
    2.6899  -51.9633  -22.3775 C   0  0  0  0  0  0  0  0  0  0  0  0
    2.0169  -51.1476  -21.5159 C   0  0  0  0  0  0  0  0  0  0  0  0
    1.6124  -51.5146  -20.2738 O   0  0  0  0  0  0  0  0  0  0  0  0
    1.4305  -52.6762  -19.6187 C   0  0  0  0  0  0  0  0  0  0  0  0
    0.0183  -53.0800  -19.4503 C   0  0  0  0  0  0  0  0  0  0  0  0
   -0.5756  -52.4916  -18.1829 C   0  0  0  0  0  0  0  0  0  0  0  0
   -0.1809  -51.1746  -17.8500 N   0  0  0  0  0  0  0  0  0  0  0  0
   -1.3764  -53.1665  -17.4970 N   0  0  0  0  0  0  0  0  0  0  0  0
    0.7233  -50.7386  -18.1393 H   0  0  0  0  0  0  0  0  0  0  0  0
   -0.8009  -50.5343  -17.2700 H   0  0  0  0  0  0  0  0  0  0  0  0
   -1.6860  -54.1191  -17.7121 H   0  0  0  0  0  0  0  0  0  0  0  0
   -0.8812  -52.8664  -20.5427 N   0  0  0  0  0  0  0  0  0  0  0  0
   -1.7953  -52.3052  -20.3213 H   0  0  0  0  0  0  0  0  0  0  0  0
   -0.8114  -53.2583  -21.8876 C   0  0  0  0  0  0  0  0  0  0  0  0
   -0.9252  -54.6302  -22.2198 C   0  0  0  0  0  0  0  0  0  0  0  0
   -0.8344  -55.0709  -23.5104 C   0  0  0  0  0  0  0  0  0  0  0  0
   -0.6259  -54.1773  -24.5417 C   0  0  0  0  0  0  0  0  0  0  0  0
   -0.5281  -54.5706  -25.8266 N   0  0  0  0  0  0  0  0  0  0  0  0
   -0.3186  -53.6696  -26.8207 C   0  0  0  0  0  0  0  0  0  0  0  0
   -0.1990  -52.3263  -26.5679 C   0  0  0  0  0  0  0  0  0  0  0  0
   -0.3005  -51.9109  -25.2435 C   0  0  0  0  0  0  0  0  0  0  0  0
   -0.5098  -52.8414  -24.2606 C   0  0  0  0  0  0  0  0  0  0  0  0
   -0.6076  -52.4264  -22.9346 C   0  0  0  0  0  0  0  0  0  0  0  0
    4.5238  -48.3233  -26.8116 C   0  0  0  0  0  0  0  0  0  0  0  0
    5.9637  -47.9834  -26.7848 C   0  0  0  0  0  0  0  0  0  0  0  0
    6.3201  -46.9210  -26.2269 O   0  0  0  0  0  0  0  0  0  0  0  0
    6.9712  -48.7855  -27.3531 N   0  0  0  0  0  0  0  0  0  0  0  0
    6.6925  -49.6737  -27.8188 H   0  0  0  0  0  0  0  0  0  0  0  0
    8.3735  -48.4551  -27.3304 C   0  0  0  0  0  0  0  0  0  0  0  0
    8.8908  -48.6508  -28.7104 C   0  0  0  0  0  0  0  0  0  0  0  0
    9.5802  -49.8041  -29.0548 O   0  0  0  0  0  0  0  0  0  0  0  0
    8.7367  -47.7959  -29.6278 O   0  0  0  0  0  0  0  0  0  0  0  0
    9.1605  -50.4233  -29.7591 H   0  0  0  0  0  0  0  0  0  0  0  0
    9.1679  -49.2597  -26.3248 C   0  0  0  0  0  0  0  0  0  0  0  0
    9.5166  -48.4556  -25.1067 C   0  0  0  0  0  0  0  0  0  0  0  0
    8.4430  -48.7715  -24.0547 C   0  0  0  0  0  0  0  0  0  0  0  0
    8.3221  -50.1942  -23.9040 N   0  0  0  0  0  0  0  0  0  0  0  0
    9.1785  -50.7781  -23.8805 H   0  0  0  0  0  0  0  0  0  0  0  0
    7.0437  -50.7660  -23.7932 C   0  0  0  0  0  0  0  0  0  0  0  0
    6.4438  -51.0666  -22.5362 N   0  0  0  0  0  0  0  0  0  0  0  0
    6.3864  -51.0305  -24.8965 N   0  0  0  0  0  0  0  0  0  0  0  0
    5.4160  -50.9928  -22.4314 H   0  0  0  0  0  0  0  0  0  0  0  0
    7.0257  -51.3621  -21.7144 H   0  0  0  0  0  0  0  0  0  0  0  0
    6.7953  -50.8243  -25.8220 H   0  0  0  0  0  0  0  0  0  0  0  0
    3.6860  -47.2021  -27.3513 C   0  0  0  0  0  0  0  0  0  0  0  0
    4.0072  -46.8360  -28.7485 C   0  0  0  0  0  0  0  0  0  0  0  0
    3.8801  -47.7975  -29.7570 O   0  0  0  0  0  0  0  0  0  0  0  0
    4.3962  -45.6951  -29.1098 O   0  0  0  0  0  0  0  0  0  0  0  0
    4.6936  -48.0618  -30.2726 H   0  0  0  0  0  0  0  0  0  0  0  0
  5  6  1  0  0  0
  6  7  2  0  0  0
  7  8  1  0  0  0
  8  9  2  0  0  0
  9 10  1  0  0  0
 10 11  2  0  0  0
 11 12  1  0  0  0
 12 13  1  0  0  0
 13 14  1  0  0  0
 14 21  1  0  0  0
 21 23  1  0  0  0
 23 24  2  0  0  0
 24 25  1  0  0  0
 25 26  2  0  0  0
 26 27  1  0  0  0
 27 28  2  0  0  0
 28 29  1  0  0  0
 29 30  2  0  0  0
 30 31  1  0  0  0
 31 32  2  0  0  0
 14 15  1  0  0  0
 15 16  1  0  0  0
 15 17  2  0  0  0
  8  1  1  0  0  0
  1  2  2  0  0  0
  1  3  1  0  0  0
  3 33  1  0  0  0
 33 54  1  0  0  0
 54 55  1  0  0  0
 55 56  1  0  0  0
 55 57  2  0  0  0
 33 34  1  0  0  0
 34 35  2  0  0  0
 34 36  1  0  0  0
 36 38  1  0  0  0
 38 43  1  0  0  0
 43 44  1  0  0  0
 44 45  1  0  0  0
 45 46  1  0  0  0
 46 48  1  0  0  0
 48 49  1  0  0  0
 48 50  2  0  0  0
 38 39  1  0  0  0
 39 40  1  0  0  0
 39 41  2  0  0  0
 11  6  1  0  0  0
 32 23  1  0  0  0
 31 26  1  0  0  0
 21 22  1  0  0  0
 16 18  1  0  0  0
 16 19  1  0  0  0
 17 20  1  0  0  0
  3  4  1  0  0  0
 56 58  1  0  0  0
 36 37  1  0  0  0
 46 47  1  0  0  0
 49 51  1  0  0  0
 49 52  1  0  0  0
 50 53  1  0  0  0
 40 42  1  0  0  0
M  END
> <minimizedAffinity>
-7.87041

> <CNNscore>
0.0851395875

> <CNNaffinity>
6.3394188881

> <CNN_VS>
0.5397354960

> <CNNaffinity_variance>
0.5419863462

$$$$
[H]c1nn(C([H])([H])[H])c([H])c1-c1c([H])c([H])c2c(c1[H])C([H])([H])C([H])([H])N(C(=O)c1c([H])c(OC([H])([H])[H])c(OC([H])([H])[H])c(OC([H])([H])[H])c1[H])C2([H])[H]


 30 33  0  0  0  0  0  0  0  0999 V2000
    0.1071  -53.5244  -22.4306 C   0  0  0  0  0  0  0  0  0  0  0  0
   -0.5634  -54.6189  -22.1459 O   0  0  0  0  0  0  0  0  0  0  0  0
    0.7018  -52.9560  -21.3123 N   0  0  0  0  0  0  0  0  0  0  0  0
    1.5155  -51.7959  -21.2776 C   0  0  0  0  0  0  0  0  0  0  0  0
    2.1501  -51.6491  -19.8908 C   0  0  0  0  0  0  0  0  0  0  0  0
    1.0330  -51.5866  -18.9100 C   0  0  0  0  0  0  0  0  0  0  0  0
    0.8633  -50.5984  -17.9951 C   0  0  0  0  0  0  0  0  0  0  0  0
   -0.2292  -50.6701  -17.1265 C   0  0  0  0  0  0  0  0  0  0  0  0
   -1.0982  -51.7105  -17.2030 C   0  0  0  0  0  0  0  0  0  0  0  0
   -0.9203  -52.7303  -18.1500 C   0  0  0  0  0  0  0  0  0  0  0  0
    0.1382  -52.6542  -18.9867 C   0  0  0  0  0  0  0  0  0  0  0  0
    0.4205  -53.6516  -20.0200 C   0  0  0  0  0  0  0  0  0  0  0  0
    1.3942  -53.0626  -25.8961 C   0  0  0  0  0  0  0  0  0  0  0  0
    1.2764  -53.3789  -24.5672 C   0  0  0  0  0  0  0  0  0  0  0  0
    0.1093  -53.1156  -23.8186 C   0  0  0  0  0  0  0  0  0  0  0  0
   -0.8944  -52.5220  -24.5193 C   0  0  0  0  0  0  0  0  0  0  0  0
   -0.7742  -52.1957  -25.8860 C   0  0  0  0  0  0  0  0  0  0  0  0
    0.3686  -52.4615  -26.5884 C   0  0  0  0  0  0  0  0  0  0  0  0
    3.7245  -52.6172  -26.2429 C   0  0  0  0  0  0  0  0  0  0  0  0
    2.5675  -53.3353  -26.6199 O   0  0  0  0  0  0  0  0  0  0  0  0
   -1.8252  -51.5944  -26.5423 O   0  0  0  0  0  0  0  0  0  0  0  0
   -2.7758  -52.3304  -27.2802 C   0  0  0  0  0  0  0  0  0  0  0  0
    0.5247  -52.1563  -27.9312 O   0  0  0  0  0  0  0  0  0  0  0  0
    0.2780  -53.1305  -28.9287 C   0  0  0  0  0  0  0  0  0  0  0  0
   -0.4096  -49.6003  -16.1399 C   0  0  0  0  0  0  0  0  0  0  0  0
    0.5602  -48.6651  -15.8045 C   0  0  0  0  0  0  0  0  0  0  0  0
    0.0473  -47.8440  -14.8722 N   0  0  0  0  0  0  0  0  0  0  0  0
   -1.2047  -48.2218  -14.6055 N   0  0  0  0  0  0  0  0  0  0  0  0
   -2.0346  -47.5334  -13.6371 C   0  0  0  0  0  0  0  0  0  0  0  0
   -1.4947  -49.2872  -15.3683 C   0  0  0  0  0  0  0  0  0  0  0  0
 19 20  1  0  0  0
 20 13  1  0  0  0
 13 14  2  0  0  0
 14 15  1  0  0  0
 15 16  2  0  0  0
 16 17  1  0  0  0
 17 21  1  0  0  0
 21 22  1  0  0  0
 17 18  2  0  0  0
 18 23  1  0  0  0
 23 24  1  0  0  0
 15  1  1  0  0  0
  1  2  2  0  0  0
  1  3  1  0  0  0
  3  4  1  0  0  0
  4  5  1  0  0  0
  5  6  1  0  0  0
  6  7  2  0  0  0
  7  8  1  0  0  0
  8  9  2  0  0  0
  9 10  1  0  0  0
 10 11  2  0  0  0
 11 12  1  0  0  0
  8 25  1  0  0  0
 25 26  1  0  0  0
 26 27  2  0  0  0
 27 28  1  0  0  0
 28 29  1  0  0  0
 28 30  1  0  0  0
 18 13  1  0  0  0
 12  3  1  0  0  0
 30 25  2  0  0  0
 11  6  1  0  0  0
M  END
> <minimizedAffinity>
-7.66990

> <CNNscore>
0.5764216185

> <CNNaffinity>
6.3952836990

> <CNN_VS>
3.6863796711

> <CNNaffinity_variance>
0.3792727590

$$$$
[H]c1nn(C([H])([H])[H])c([H])c1-c1c([H])c([H])c2c(c1[H])C([H])([H])C([H])([H])N(C(=O)c1c([H])c(OC([H])([H])[H])c(OC([H])([H])[H])c(OC([H])([H])[H])c1[H])C2([H])[H]


 30 33  0  0  0  0  0  0  0  0999 V2000
   -0.8628  -53.2053  -20.0613 C   0  0  0  0  0  0  0  0  0  0  0  0
   -1.7212  -54.1588  -19.7738 O   0  0  0  0  0  0  0  0  0  0  0  0
   -0.4039  -52.5411  -18.9320 N   0  0  0  0  0  0  0  0  0  0  0  0
    0.5459  -51.4897  -18.8896 C   0  0  0  0  0  0  0  0  0  0  0  0
    0.9360  -51.2019  -17.4361 C   0  0  0  0  0  0  0  0  0  0  0  0
   -0.3186  -50.8609  -16.7126 C   0  0  0  0  0  0  0  0  0  0  0  0
   -0.5083  -49.7294  -15.9871 C   0  0  0  0  0  0  0  0  0  0  0  0
   -1.7377  -49.5404  -15.3501 C   0  0  0  0  0  0  0  0  0  0  0  0
   -2.7170  -50.4744  -15.4597 C   0  0  0  0  0  0  0  0  0  0  0  0
   -2.5180  -51.6428  -16.2105 C   0  0  0  0  0  0  0  0  0  0  0  0
   -1.3268  -51.8187  -16.8239 C   0  0  0  0  0  0  0  0  0  0  0  0
   -1.0076  -52.9904  -17.6409 C   0  0  0  0  0  0  0  0  0  0  0  0
    0.6469  -51.6535  -23.0932 C   0  0  0  0  0  0  0  0  0  0  0  0
    0.2638  -51.9225  -21.8045 C   0  0  0  0  0  0  0  0  0  0  0  0
   -0.5543  -53.0206  -21.4629 C   0  0  0  0  0  0  0  0  0  0  0  0
   -0.9348  -53.7957  -22.5143 C   0  0  0  0  0  0  0  0  0  0  0  0
   -0.5418  -53.5197  -23.8402 C   0  0  0  0  0  0  0  0  0  0  0  0
    0.2516  -52.4482  -24.1442 C   0  0  0  0  0  0  0  0  0  0  0  0
    1.8087  -49.6964  -22.3388 C   0  0  0  0  0  0  0  0  0  0  0  0
    1.4625  -50.5532  -23.4078 O   0  0  0  0  0  0  0  0  0  0  0  0
   -0.9595  -54.3408  -24.8640 O   0  0  0  0  0  0  0  0  0  0  0  0
   -0.1546  -55.3801  -25.3756 C   0  0  0  0  0  0  0  0  0  0  0  0
    0.6587  -52.1444  -25.4336 O   0  0  0  0  0  0  0  0  0  0  0  0
   -0.2457  -51.5771  -26.3638 C   0  0  0  0  0  0  0  0  0  0  0  0
   -1.9390  -48.3165  -14.5677 C   0  0  0  0  0  0  0  0  0  0  0  0
   -2.3675  -48.2860  -13.2474 C   0  0  0  0  0  0  0  0  0  0  0  0
   -2.4382  -47.0015  -12.8583 N   0  0  0  0  0  0  0  0  0  0  0  0
   -2.0724  -46.2208  -13.8771 N   0  0  0  0  0  0  0  0  0  0  0  0
   -2.0420  -44.7753  -13.7766 C   0  0  0  0  0  0  0  0  0  0  0  0
   -1.7669  -47.0065  -14.9213 C   0  0  0  0  0  0  0  0  0  0  0  0
 19 20  1  0  0  0
 20 13  1  0  0  0
 13 14  2  0  0  0
 14 15  1  0  0  0
 15 16  2  0  0  0
 16 17  1  0  0  0
 17 21  1  0  0  0
 21 22  1  0  0  0
 17 18  2  0  0  0
 18 23  1  0  0  0
 23 24  1  0  0  0
 15  1  1  0  0  0
  1  2  2  0  0  0
  1  3  1  0  0  0
  3  4  1  0  0  0
  4  5  1  0  0  0
  5  6  1  0  0  0
  6  7  2  0  0  0
  7  8  1  0  0  0
  8  9  2  0  0  0
  9 10  1  0  0  0
 10 11  2  0  0  0
 11 12  1  0  0  0
  8 25  1  0  0  0
 25 26  1  0  0  0
 26 27  2  0  0  0
 27 28  1  0  0  0
 28 29  1  0  0  0
 28 30  1  0  0  0
 18 13  1  0  0  0
 12  3  1  0  0  0
 30 25  2  0  0  0
 11  6  1  0  0  0
M  END
> <minimizedAffinity>
-7.51206

> <CNNscore>
0.5074897408

> <CNNaffinity>
6.0902419090

> <CNN_VS>
3.0907351971

> <CNNaffinity_variance>
0.5327726603

$$$$
[H]c1nn(C([H])([H])[H])c([H])c1-c1c([H])c([H])c2c(c1[H])C([H])([H])C([H])([H])N(C(=O)c1c([H])c(OC([H])([H])[H])c(OC([H])([H])[H])c(OC([H])([H])[H])c1[H])C2([H])[H]


 30 33  0  0  0  0  0  0  0  0999 V2000
    0.1178  -53.2764  -21.3004 C   0  0  0  0  0  0  0  0  0  0  0  0
   -0.4843  -54.4284  -21.1029 O   0  0  0  0  0  0  0  0  0  0  0  0
    0.4695  -52.6470  -20.1140 N   0  0  0  0  0  0  0  0  0  0  0  0
    1.1548  -51.4140  -19.9749 C   0  0  0  0  0  0  0  0  0  0  0  0
    1.5421  -51.1989  -18.5082 C   0  0  0  0  0  0  0  0  0  0  0  0
    0.2812  -51.2379  -17.7193 C   0  0  0  0  0  0  0  0  0  0  0  0
   -0.1249  -50.2651  -16.8642 C   0  0  0  0  0  0  0  0  0  0  0  0
   -1.3310  -50.4360  -16.1792 C   0  0  0  0  0  0  0  0  0  0  0  0
   -2.0752  -51.5553  -16.3709 C   0  0  0  0  0  0  0  0  0  0  0  0
   -1.6529  -52.5589  -17.2557 C   0  0  0  0  0  0  0  0  0  0  0  0
   -0.4857  -52.3867  -17.9146 C   0  0  0  0  0  0  0  0  0  0  0  0
    0.0509  -53.3587  -18.8684 C   0  0  0  0  0  0  0  0  0  0  0  0
   -0.1743  -53.4243  -25.0115 C   0  0  0  0  0  0  0  0  0  0  0  0
   -0.2606  -53.7055  -23.6723 C   0  0  0  0  0  0  0  0  0  0  0  0
    0.3044  -52.8776  -22.6787 C   0  0  0  0  0  0  0  0  0  0  0  0
    0.9432  -51.7741  -23.1531 C   0  0  0  0  0  0  0  0  0  0  0  0
    1.0331  -51.4841  -24.5302 C   0  0  0  0  0  0  0  0  0  0  0  0
    0.4768  -52.3037  -25.4730 C   0  0  0  0  0  0  0  0  0  0  0  0
   -0.0381  -55.4489  -26.2887 C   0  0  0  0  0  0  0  0  0  0  0  0
   -0.7456  -54.2649  -25.9819 O   0  0  0  0  0  0  0  0  0  0  0  0
    1.6941  -50.3513  -24.9506 O   0  0  0  0  0  0  0  0  0  0  0  0
    3.1011  -50.2516  -24.9457 C   0  0  0  0  0  0  0  0  0  0  0  0
    0.5437  -52.0529  -26.8343 O   0  0  0  0  0  0  0  0  0  0  0  0
    1.6634  -52.4709  -27.5935 C   0  0  0  0  0  0  0  0  0  0  0  0
   -1.7667  -49.3826  -15.2568 C   0  0  0  0  0  0  0  0  0  0  0  0
   -2.6313  -49.5780  -14.1882 C   0  0  0  0  0  0  0  0  0  0  0  0
   -2.8051  -48.3988  -13.5673 N   0  0  0  0  0  0  0  0  0  0  0  0
   -2.0867  -47.4680  -14.1989 N   0  0  0  0  0  0  0  0  0  0  0  0
   -2.0607  -46.0835  -13.7713 C   0  0  0  0  0  0  0  0  0  0  0  0
   -1.4515  -48.0520  -15.2268 C   0  0  0  0  0  0  0  0  0  0  0  0
 19 20  1  0  0  0
 20 13  1  0  0  0
 13 14  2  0  0  0
 14 15  1  0  0  0
 15 16  2  0  0  0
 16 17  1  0  0  0
 17 21  1  0  0  0
 21 22  1  0  0  0
 17 18  2  0  0  0
 18 23  1  0  0  0
 23 24  1  0  0  0
 15  1  1  0  0  0
  1  2  2  0  0  0
  1  3  1  0  0  0
  3  4  1  0  0  0
  4  5  1  0  0  0
  5  6  1  0  0  0
  6  7  2  0  0  0
  7  8  1  0  0  0
  8  9  2  0  0  0
  9 10  1  0  0  0
 10 11  2  0  0  0
 11 12  1  0  0  0
  8 25  1  0  0  0
 25 26  1  0  0  0
 26 27  2  0  0  0
 27 28  1  0  0  0
 28 29  1  0  0  0
 28 30  1  0  0  0
 18 13  1  0  0  0
 12  3  1  0  0  0
 30 25  2  0  0  0
 11  6  1  0  0  0
M  END
> <minimizedAffinity>
-7.27531

> <CNNscore>
0.4591272473

> <CNNaffinity>
6.0269932747

> <CNN_VS>
2.7671568394

> <CNNaffinity_variance>
0.3720698357

$$$$
[H]c1nn(C([H])([H])[H])c([H])c1-c1c([H])c([H])c2c(c1[H])C([H])([H])C([H])([H])N(C(=O)c1c([H])c(OC([H])([H])[H])c(OC([H])([H])[H])c(OC([H])([H])[H])c1[H])C2([H])[H]


 30 33  0  0  0  0  0  0  0  0999 V2000
    0.2376  -53.4855  -21.7005 C   0  0  0  0  0  0  0  0  0  0  0  0
   -0.3230  -54.6332  -21.3887 O   0  0  0  0  0  0  0  0  0  0  0  0
    0.6981  -52.7958  -20.5872 N   0  0  0  0  0  0  0  0  0  0  0  0
    1.3743  -51.5501  -20.5769 C   0  0  0  0  0  0  0  0  0  0  0  0
    1.9052  -51.2602  -19.1693 C   0  0  0  0  0  0  0  0  0  0  0  0
    0.7318  -51.2748  -18.2546 C   0  0  0  0  0  0  0  0  0  0  0  0
    0.3994  -50.2663  -17.4091 C   0  0  0  0  0  0  0  0  0  0  0  0
   -0.7280  -50.4171  -16.5970 C   0  0  0  0  0  0  0  0  0  0  0  0
   -1.4700  -51.5525  -16.6589 C   0  0  0  0  0  0  0  0  0  0  0  0
   -1.1240  -52.5930  -17.5341 C   0  0  0  0  0  0  0  0  0  0  0  0
   -0.0327  -52.4401  -18.3163 C   0  0  0  0  0  0  0  0  0  0  0  0
    0.4195  -53.4510  -19.2733 C   0  0  0  0  0  0  0  0  0  0  0  0
    1.6880  -52.4078  -24.9585 C   0  0  0  0  0  0  0  0  0  0  0  0
    1.5150  -52.7291  -23.6368 C   0  0  0  0  0  0  0  0  0  0  0  0
    0.2767  -53.1518  -23.1079 C   0  0  0  0  0  0  0  0  0  0  0  0
   -0.7364  -53.2171  -24.0135 C   0  0  0  0  0  0  0  0  0  0  0  0
   -0.5598  -52.8865  -25.3730 C   0  0  0  0  0  0  0  0  0  0  0  0
    0.6514  -52.4791  -25.8600 C   0  0  0  0  0  0  0  0  0  0  0  0
    4.0655  -52.2874  -24.6720 C   0  0  0  0  0  0  0  0  0  0  0  0
    2.9319  -51.9894  -25.4611 O   0  0  0  0  0  0  0  0  0  0  0  0
   -1.6241  -52.9714  -26.2430 O   0  0  0  0  0  0  0  0  0  0  0  0
   -2.4306  -51.8587  -26.5614 C   0  0  0  0  0  0  0  0  0  0  0  0
    0.8644  -52.1460  -27.1882 O   0  0  0  0  0  0  0  0  0  0  0  0
    1.1173  -53.1493  -28.1549 C   0  0  0  0  0  0  0  0  0  0  0  0
   -1.0843  -49.3252  -15.6853 C   0  0  0  0  0  0  0  0  0  0  0  0
   -2.2404  -49.2842  -14.9176 C   0  0  0  0  0  0  0  0  0  0  0  0
   -2.2333  -48.1428  -14.2082 N   0  0  0  0  0  0  0  0  0  0  0  0
   -1.1219  -47.4622  -14.4958 N   0  0  0  0  0  0  0  0  0  0  0  0
   -0.8163  -46.1814  -13.8906 C   0  0  0  0  0  0  0  0  0  0  0  0
   -0.4153  -48.1689  -15.3916 C   0  0  0  0  0  0  0  0  0  0  0  0
 19 20  1  0  0  0
 20 13  1  0  0  0
 13 14  2  0  0  0
 14 15  1  0  0  0
 15 16  2  0  0  0
 16 17  1  0  0  0
 17 21  1  0  0  0
 21 22  1  0  0  0
 17 18  2  0  0  0
 18 23  1  0  0  0
 23 24  1  0  0  0
 15  1  1  0  0  0
  1  2  2  0  0  0
  1  3  1  0  0  0
  3  4  1  0  0  0
  4  5  1  0  0  0
  5  6  1  0  0  0
  6  7  2  0  0  0
  7  8  1  0  0  0
  8  9  2  0  0  0
  9 10  1  0  0  0
 10 11  2  0  0  0
 11 12  1  0  0  0
  8 25  1  0  0  0
 25 26  1  0  0  0
 26 27  2  0  0  0
 27 28  1  0  0  0
 28 29  1  0  0  0
 28 30  1  0  0  0
 18 13  1  0  0  0
 12  3  1  0  0  0
 30 25  2  0  0  0
 11  6  1  0  0  0
M  END
> <minimizedAffinity>
-7.41493

> <CNNscore>
0.4383318424

> <CNNaffinity>
6.1212592125

> <CNN_VS>
2.6831429005

> <CNNaffinity_variance>
0.6366866827

$$$$
[H]c1nn(C([H])([H])[H])c([H])c1-c1c([H])c([H])c2c(c1[H])C([H])([H])C([H])([H])N(C(=O)c1c([H])c(OC([H])([H])[H])c(OC([H])([H])[H])c(OC([H])([H])[H])c1[H])C2([H])[H]


 30 33  0  0  0  0  0  0  0  0999 V2000
    3.2664  -46.2554  -28.2712 C   0  0  0  0  0  0  0  0  0  0  0  0
    2.2271  -45.4900  -28.0213 O   0  0  0  0  0  0  0  0  0  0  0  0
    3.4830  -47.2028  -27.2799 N   0  0  0  0  0  0  0  0  0  0  0  0
    4.4943  -48.1958  -27.2574 C   0  0  0  0  0  0  0  0  0  0  0  0
    4.2370  -49.1716  -26.1045 C   0  0  0  0  0  0  0  0  0  0  0  0
    4.2084  -48.3644  -24.8549 C   0  0  0  0  0  0  0  0  0  0  0  0
    4.9715  -48.6100  -23.7596 C   0  0  0  0  0  0  0  0  0  0  0  0
    4.8364  -47.7740  -22.6479 C   0  0  0  0  0  0  0  0  0  0  0  0
    3.9572  -46.7396  -22.6713 C   0  0  0  0  0  0  0  0  0  0  0  0
    3.1700  -46.4881  -23.8051 C   0  0  0  0  0  0  0  0  0  0  0  0
    3.3062  -47.3006  -24.8764 C   0  0  0  0  0  0  0  0  0  0  0  0
    2.5477  -47.1309  -26.1166 C   0  0  0  0  0  0  0  0  0  0  0  0
    5.9684  -44.9608  -30.4855 C   0  0  0  0  0  0  0  0  0  0  0  0
    5.1872  -45.2593  -29.3990 C   0  0  0  0  0  0  0  0  0  0  0  0
    3.9815  -45.9859  -29.5000 C   0  0  0  0  0  0  0  0  0  0  0  0
    3.6524  -46.3696  -30.7630 C   0  0  0  0  0  0  0  0  0  0  0  0
    4.4547  -46.0628  -31.8814 C   0  0  0  0  0  0  0  0  0  0  0  0
    5.6191  -45.3567  -31.7559 C   0  0  0  0  0  0  0  0  0  0  0  0
    7.9491  -44.0997  -31.5267 C   0  0  0  0  0  0  0  0  0  0  0  0
    7.1654  -44.2357  -30.3588 O   0  0  0  0  0  0  0  0  0  0  0  0
    4.0689  -46.4780  -33.1365 O   0  0  0  0  0  0  0  0  0  0  0  0
    3.2588  -47.6147  -33.3408 C   0  0  0  0  0  0  0  0  0  0  0  0
    6.4339  -45.0360  -32.8300 O   0  0  0  0  0  0  0  0  0  0  0  0
    6.8912  -46.0402  -33.7173 C   0  0  0  0  0  0  0  0  0  0  0  0
    5.6629  -48.0421  -21.4666 C   0  0  0  0  0  0  0  0  0  0  0  0
    5.7290  -49.2642  -20.8111 C   0  0  0  0  0  0  0  0  0  0  0  0
    6.5814  -49.1419  -19.7793 N   0  0  0  0  0  0  0  0  0  0  0  0
    7.0558  -47.8946  -19.7563 N   0  0  0  0  0  0  0  0  0  0  0  0
    8.0034  -47.4418  -18.7577 C   0  0  0  0  0  0  0  0  0  0  0  0
    6.5061  -47.2162  -20.7754 C   0  0  0  0  0  0  0  0  0  0  0  0
 19 20  1  0  0  0
 20 13  1  0  0  0
 13 14  2  0  0  0
 14 15  1  0  0  0
 15 16  2  0  0  0
 16 17  1  0  0  0
 17 21  1  0  0  0
 21 22  1  0  0  0
 17 18  2  0  0  0
 18 23  1  0  0  0
 23 24  1  0  0  0
 15  1  1  0  0  0
  1  2  2  0  0  0
  1  3  1  0  0  0
  3  4  1  0  0  0
  4  5  1  0  0  0
  5  6  1  0  0  0
  6  7  2  0  0  0
  7  8  1  0  0  0
  8  9  2  0  0  0
  9 10  1  0  0  0
 10 11  2  0  0  0
 11 12  1  0  0  0
  8 25  1  0  0  0
 25 26  1  0  0  0
 26 27  2  0  0  0
 27 28  1  0  0  0
 28 29  1  0  0  0
 28 30  1  0  0  0
 18 13  1  0  0  0
 12  3  1  0  0  0
 30 25  2  0  0  0
 11  6  1  0  0  0
M  END
> <minimizedAffinity>
-3.99802

> <CNNscore>
0.4208261371

> <CNNaffinity>
5.1778535843

> <CNN_VS>
2.1789760590

> <CNNaffinity_variance>
0.6589310765

$$$$
[H]c1nn(C([H])([H])[H])c([H])c1-c1c([H])c([H])c2c(c1[H])C([H])([H])C([H])([H])N(C(=O)c1c([H])c(OC([H])([H])[H])c(OC([H])([H])[H])c(OC([H])([H])[H])c1[H])C2([H])[H]


 30 33  0  0  0  0  0  0  0  0999 V2000
    0.5224  -53.3075  -21.9960 C   0  0  0  0  0  0  0  0  0  0  0  0
   -0.2373  -54.3354  -21.6876 O   0  0  0  0  0  0  0  0  0  0  0  0
    1.0807  -52.7014  -20.8788 N   0  0  0  0  0  0  0  0  0  0  0  0
    1.9666  -51.5950  -20.8637 C   0  0  0  0  0  0  0  0  0  0  0  0
    2.5191  -51.3927  -19.4490 C   0  0  0  0  0  0  0  0  0  0  0  0
    1.3479  -51.1922  -18.5536 C   0  0  0  0  0  0  0  0  0  0  0  0
    1.1865  -50.1343  -17.7186 C   0  0  0  0  0  0  0  0  0  0  0  0
    0.0381  -50.0768  -16.9244 C   0  0  0  0  0  0  0  0  0  0  0  0
   -0.8923  -51.0634  -16.9927 C   0  0  0  0  0  0  0  0  0  0  0  0
   -0.7227  -52.1555  -17.8569 C   0  0  0  0  0  0  0  0  0  0  0  0
    0.3901  -52.2043  -18.6220 C   0  0  0  0  0  0  0  0  0  0  0  0
    0.6706  -53.2867  -19.5664 C   0  0  0  0  0  0  0  0  0  0  0  0
   -0.5406  -52.8557  -25.5380 C   0  0  0  0  0  0  0  0  0  0  0  0
   -0.5173  -53.1410  -24.1972 C   0  0  0  0  0  0  0  0  0  0  0  0
    0.6413  -52.9969  -23.4043 C   0  0  0  0  0  0  0  0  0  0  0  0
    1.7378  -52.5507  -24.0746 C   0  0  0  0  0  0  0  0  0  0  0  0
    1.7153  -52.2573  -25.4538 C   0  0  0  0  0  0  0  0  0  0  0  0
    0.5787  -52.4060  -26.1996 C   0  0  0  0  0  0  0  0  0  0  0  0
   -2.5099  -51.8560  -26.4714 C   0  0  0  0  0  0  0  0  0  0  0  0
   -1.7075  -53.0073  -26.3061 O   0  0  0  0  0  0  0  0  0  0  0  0
    2.8581  -51.8092  -26.0782 O   0  0  0  0  0  0  0  0  0  0  0  0
    3.1812  -50.4392  -26.1706 C   0  0  0  0  0  0  0  0  0  0  0  0
    0.5168  -52.1282  -27.5558 O   0  0  0  0  0  0  0  0  0  0  0  0
    0.7974  -53.1321  -28.5143 C   0  0  0  0  0  0  0  0  0  0  0  0
   -0.1331  -48.9320  -16.0241 C   0  0  0  0  0  0  0  0  0  0  0  0
    0.9068  -48.1610  -15.5222 C   0  0  0  0  0  0  0  0  0  0  0  0
    0.3804  -47.2060  -14.7366 N   0  0  0  0  0  0  0  0  0  0  0  0
   -0.9472  -47.3420  -14.7217 N   0  0  0  0  0  0  0  0  0  0  0  0
   -1.8104  -46.4599  -13.9621 C   0  0  0  0  0  0  0  0  0  0  0  0
   -1.2723  -48.3864  -15.4993 C   0  0  0  0  0  0  0  0  0  0  0  0
 19 20  1  0  0  0
 20 13  1  0  0  0
 13 14  2  0  0  0
 14 15  1  0  0  0
 15 16  2  0  0  0
 16 17  1  0  0  0
 17 21  1  0  0  0
 21 22  1  0  0  0
 17 18  2  0  0  0
 18 23  1  0  0  0
 23 24  1  0  0  0
 15  1  1  0  0  0
  1  2  2  0  0  0
  1  3  1  0  0  0
  3  4  1  0  0  0
  4  5  1  0  0  0
  5  6  1  0  0  0
  6  7  2  0  0  0
  7  8  1  0  0  0
  8  9  2  0  0  0
  9 10  1  0  0  0
 10 11  2  0  0  0
 11 12  1  0  0  0
  8 25  1  0  0  0
 25 26  1  0  0  0
 26 27  2  0  0  0
 27 28  1  0  0  0
 28 29  1  0  0  0
 28 30  1  0  0  0
 18 13  1  0  0  0
 12  3  1  0  0  0
 30 25  2  0  0  0
 11  6  1  0  0  0
M  END
> <minimizedAffinity>
-7.30754

> <CNNscore>
0.3813050985

> <CNNaffinity>
6.1084427834

> <CNN_VS>
2.3291804790

> <CNNaffinity_variance>
0.7877461314

$$$$
[H]c1nn(C([H])([H])[H])c([H])c1-c1c([H])c([H])c2c(c1[H])C([H])([H])C([H])([H])N(C(=O)c1c([H])c(OC([H])([H])[H])c(OC([H])([H])[H])c(OC([H])([H])[H])c1[H])C2([H])[H]


 30 33  0  0  0  0  0  0  0  0999 V2000
    0.6373  -51.4766  -18.4184 C   0  0  0  0  0  0  0  0  0  0  0  0
    1.8056  -50.8750  -18.3775 O   0  0  0  0  0  0  0  0  0  0  0  0
    0.5065  -52.3157  -19.5167 N   0  0  0  0  0  0  0  0  0  0  0  0
   -0.6085  -53.1296  -19.8384 C   0  0  0  0  0  0  0  0  0  0  0  0
   -0.2508  -54.0633  -20.9993 C   0  0  0  0  0  0  0  0  0  0  0  0
    0.1649  -53.1980  -22.1360 C   0  0  0  0  0  0  0  0  0  0  0  0
   -0.3693  -53.2514  -23.3827 C   0  0  0  0  0  0  0  0  0  0  0  0
    0.1237  -52.3831  -24.3605 C   0  0  0  0  0  0  0  0  0  0  0  0
    1.1169  -51.5071  -24.0611 C   0  0  0  0  0  0  0  0  0  0  0  0
    1.6669  -51.4541  -22.7715 C   0  0  0  0  0  0  0  0  0  0  0  0
    1.1851  -52.2966  -21.8312 C   0  0  0  0  0  0  0  0  0  0  0  0
    1.6725  -52.3259  -20.4513 C   0  0  0  0  0  0  0  0  0  0  0  0
   -0.9966  -49.4762  -15.7337 C   0  0  0  0  0  0  0  0  0  0  0  0
   -0.1709  -49.8961  -16.7444 C   0  0  0  0  0  0  0  0  0  0  0  0
   -0.2809  -51.1694  -17.3431 C   0  0  0  0  0  0  0  0  0  0  0  0
   -1.2736  -51.9514  -16.8393 C   0  0  0  0  0  0  0  0  0  0  0  0
   -2.1233  -51.5207  -15.7994 C   0  0  0  0  0  0  0  0  0  0  0  0
   -1.9950  -50.2813  -15.2360 C   0  0  0  0  0  0  0  0  0  0  0  0
    0.4488  -47.7167  -14.9829 C   0  0  0  0  0  0  0  0  0  0  0  0
   -0.8669  -48.2028  -15.1537 O   0  0  0  0  0  0  0  0  0  0  0  0
   -3.1108  -52.3580  -15.3298 O   0  0  0  0  0  0  0  0  0  0  0  0
   -4.2310  -52.7168  -16.1086 C   0  0  0  0  0  0  0  0  0  0  0  0
   -2.8099  -49.8222  -14.2135 O   0  0  0  0  0  0  0  0  0  0  0  0
   -4.0949  -49.2965  -14.4920 C   0  0  0  0  0  0  0  0  0  0  0  0
   -0.4564  -52.4433  -25.7060 C   0  0  0  0  0  0  0  0  0  0  0  0
   -1.8076  -52.2964  -25.9896 C   0  0  0  0  0  0  0  0  0  0  0  0
   -1.9724  -52.4089  -27.3187 N   0  0  0  0  0  0  0  0  0  0  0  0
   -0.7827  -52.6203  -27.8852 N   0  0  0  0  0  0  0  0  0  0  0  0
   -0.6215  -52.7852  -29.3160 C   0  0  0  0  0  0  0  0  0  0  0  0
    0.1465  -52.6436  -26.9172 C   0  0  0  0  0  0  0  0  0  0  0  0
 19 20  1  0  0  0
 20 13  1  0  0  0
 13 14  2  0  0  0
 14 15  1  0  0  0
 15 16  2  0  0  0
 16 17  1  0  0  0
 17 21  1  0  0  0
 21 22  1  0  0  0
 17 18  2  0  0  0
 18 23  1  0  0  0
 23 24  1  0  0  0
 15  1  1  0  0  0
  1  2  2  0  0  0
  1  3  1  0  0  0
  3  4  1  0  0  0
  4  5  1  0  0  0
  5  6  1  0  0  0
  6  7  2  0  0  0
  7  8  1  0  0  0
  8  9  2  0  0  0
  9 10  1  0  0  0
 10 11  2  0  0  0
 11 12  1  0  0  0
  8 25  1  0  0  0
 25 26  1  0  0  0
 26 27  2  0  0  0
 27 28  1  0  0  0
 28 29  1  0  0  0
 28 30  1  0  0  0
 18 13  1  0  0  0
 12  3  1  0  0  0
 30 25  2  0  0  0
 11  6  1  0  0  0
M  END
> <minimizedAffinity>
-8.59707

> <CNNscore>
0.3174050450

> <CNNaffinity>
5.7910909653

> <CNN_VS>
1.8381215334

> <CNNaffinity_variance>
0.3007661700

$$$$
[H]c1nn(C([H])([H])[H])c([H])c1-c1c([H])c([H])c2c(c1[H])C([H])([H])C([H])([H])N(C(=O)c1c([H])c(OC([H])([H])[H])c(OC([H])([H])[H])c(OC([H])([H])[H])c1[H])C2([H])[H]


 30 33  0  0  0  0  0  0  0  0999 V2000
    0.3310  -52.9929  -22.1790 C   0  0  0  0  0  0  0  0  0  0  0  0
   -0.7200  -53.6278  -21.7090 O   0  0  0  0  0  0  0  0  0  0  0  0
    1.1904  -52.5663  -21.1756 N   0  0  0  0  0  0  0  0  0  0  0  0
    2.4214  -51.8836  -21.3422 C   0  0  0  0  0  0  0  0  0  0  0  0
    3.1562  -51.8051  -20.0000 C   0  0  0  0  0  0  0  0  0  0  0  0
    2.2466  -51.1085  -19.0508 C   0  0  0  0  0  0  0  0  0  0  0  0
    2.5813  -50.0113  -18.3251 C   0  0  0  0  0  0  0  0  0  0  0  0
    1.6285  -49.4624  -17.4625 C   0  0  0  0  0  0  0  0  0  0  0  0
    0.3956  -50.0215  -17.3585 C   0  0  0  0  0  0  0  0  0  0  0  0
    0.0526  -51.1554  -18.1101 C   0  0  0  0  0  0  0  0  0  0  0  0
    0.9789  -51.6806  -18.9422 C   0  0  0  0  0  0  0  0  0  0  0  0
    0.7332  -52.8537  -19.7822 C   0  0  0  0  0  0  0  0  0  0  0  0
   -0.7300  -52.0413  -25.6211 C   0  0  0  0  0  0  0  0  0  0  0  0
   -0.6910  -52.2512  -24.2668 C   0  0  0  0  0  0  0  0  0  0  0  0
    0.4072  -52.8545  -23.6173 C   0  0  0  0  0  0  0  0  0  0  0  0
    1.4289  -53.2128  -24.4411 C   0  0  0  0  0  0  0  0  0  0  0  0
    1.3898  -52.9979  -25.8343 C   0  0  0  0  0  0  0  0  0  0  0  0
    0.3126  -52.4111  -26.4389 C   0  0  0  0  0  0  0  0  0  0  0  0
   -2.6984  -52.2925  -26.9668 C   0  0  0  0  0  0  0  0  0  0  0  0
   -1.8356  -51.4380  -26.2444 O   0  0  0  0  0  0  0  0  0  0  0  0
    2.4551  -53.3832  -26.6176 O   0  0  0  0  0  0  0  0  0  0  0  0
    3.7012  -52.7234  -26.5761 C   0  0  0  0  0  0  0  0  0  0  0  0
    0.2370  -52.1830  -27.8037 O   0  0  0  0  0  0  0  0  0  0  0  0
    0.2868  -53.2599  -28.7218 C   0  0  0  0  0  0  0  0  0  0  0  0
    1.9936  -48.2767  -16.6806 C   0  0  0  0  0  0  0  0  0  0  0  0
    2.9612  -47.3534  -17.0534 C   0  0  0  0  0  0  0  0  0  0  0  0
    3.0260  -46.4058  -16.1025 N   0  0  0  0  0  0  0  0  0  0  0  0
    2.1404  -46.6923  -15.1460 N   0  0  0  0  0  0  0  0  0  0  0  0
    1.9645  -45.8577  -13.9744 C   0  0  0  0  0  0  0  0  0  0  0  0
    1.5068  -47.8259  -15.4846 C   0  0  0  0  0  0  0  0  0  0  0  0
 19 20  1  0  0  0
 20 13  1  0  0  0
 13 14  2  0  0  0
 14 15  1  0  0  0
 15 16  2  0  0  0
 16 17  1  0  0  0
 17 21  1  0  0  0
 21 22  1  0  0  0
 17 18  2  0  0  0
 18 23  1  0  0  0
 23 24  1  0  0  0
 15  1  1  0  0  0
  1  2  2  0  0  0
  1  3  1  0  0  0
  3  4  1  0  0  0
  4  5  1  0  0  0
  5  6  1  0  0  0
  6  7  2  0  0  0
  7  8  1  0  0  0
  8  9  2  0  0  0
  9 10  1  0  0  0
 10 11  2  0  0  0
 11 12  1  0  0  0
  8 25  1  0  0  0
 25 26  1  0  0  0
 26 27  2  0  0  0
 27 28  1  0  0  0
 28 29  1  0  0  0
 28 30  1  0  0  0
 18 13  1  0  0  0
 12  3  1  0  0  0
 30 25  2  0  0  0
 11  6  1  0  0  0
M  END
> <minimizedAffinity>
-6.65289

> <CNNscore>
0.3010836244

> <CNNaffinity>
6.0617589951

> <CNN_VS>
1.8250963688

> <CNNaffinity_variance>
0.5777301788

$$$$
[H]c1nn(C([H])([H])[H])c([H])c1-c1c([H])c([H])c2c(c1[H])C([H])([H])C([H])([H])N(C(=O)c1c([H])c(OC([H])([H])[H])c(OC([H])([H])[H])c(OC([H])([H])[H])c1[H])C2([H])[H]


 30 33  0  0  0  0  0  0  0  0999 V2000
    4.2263  -50.1841  -21.0040 C   0  0  0  0  0  0  0  0  0  0  0  0
    4.9222  -51.2986  -21.0521 O   0  0  0  0  0  0  0  0  0  0  0  0
    3.9640  -49.6631  -22.2638 N   0  0  0  0  0  0  0  0  0  0  0  0
    3.2168  -48.4967  -22.5642 C   0  0  0  0  0  0  0  0  0  0  0  0
    2.9774  -48.4092  -24.0750 C   0  0  0  0  0  0  0  0  0  0  0  0
    4.3162  -48.4065  -24.7240 C   0  0  0  0  0  0  0  0  0  0  0  0
    4.7466  -47.4652  -25.6022 C   0  0  0  0  0  0  0  0  0  0  0  0
    6.0286  -47.5909  -26.1441 C   0  0  0  0  0  0  0  0  0  0  0  0
    6.8210  -48.6364  -25.7939 C   0  0  0  0  0  0  0  0  0  0  0  0
    6.3735  -49.6076  -24.8857 C   0  0  0  0  0  0  0  0  0  0  0  0
    5.1327  -49.4794  -24.3657 C   0  0  0  0  0  0  0  0  0  0  0  0
    4.5622  -50.4230  -23.4031 C   0  0  0  0  0  0  0  0  0  0  0  0
    3.5408  -47.7387  -18.2783 C   0  0  0  0  0  0  0  0  0  0  0  0
    3.8851  -48.3142  -19.4742 C   0  0  0  0  0  0  0  0  0  0  0  0
    3.8649  -49.7094  -19.6857 C   0  0  0  0  0  0  0  0  0  0  0  0
    3.4755  -50.4428  -18.6082 C   0  0  0  0  0  0  0  0  0  0  0  0
    3.1217  -49.8522  -17.3775 C   0  0  0  0  0  0  0  0  0  0  0  0
    3.1501  -48.4967  -17.1988 C   0  0  0  0  0  0  0  0  0  0  0  0
    4.8439  -45.7379  -18.0598 C   0  0  0  0  0  0  0  0  0  0  0  0
    3.5688  -46.3460  -18.0926 O   0  0  0  0  0  0  0  0  0  0  0  0
    2.7360  -50.6473  -16.3212 O   0  0  0  0  0  0  0  0  0  0  0  0
    3.6650  -51.2172  -15.4256 C   0  0  0  0  0  0  0  0  0  0  0  0
    2.8097  -47.8792  -16.0057 O   0  0  0  0  0  0  0  0  0  0  0  0
    3.7745  -47.6917  -14.9863 C   0  0  0  0  0  0  0  0  0  0  0  0
    6.4902  -46.5718  -27.0921 C   0  0  0  0  0  0  0  0  0  0  0  0
    6.3509  -45.2027  -26.9080 C   0  0  0  0  0  0  0  0  0  0  0  0
    6.8855  -44.5793  -27.9719 N   0  0  0  0  0  0  0  0  0  0  0  0
    7.3561  -45.4970  -28.8189 N   0  0  0  0  0  0  0  0  0  0  0  0
    7.9970  -45.1440  -30.0699 C   0  0  0  0  0  0  0  0  0  0  0  0
    7.1225  -46.7111  -28.2969 C   0  0  0  0  0  0  0  0  0  0  0  0
 19 20  1  0  0  0
 20 13  1  0  0  0
 13 14  2  0  0  0
 14 15  1  0  0  0
 15 16  2  0  0  0
 16 17  1  0  0  0
 17 21  1  0  0  0
 21 22  1  0  0  0
 17 18  2  0  0  0
 18 23  1  0  0  0
 23 24  1  0  0  0
 15  1  1  0  0  0
  1  2  2  0  0  0
  1  3  1  0  0  0
  3  4  1  0  0  0
  4  5  1  0  0  0
  5  6  1  0  0  0
  6  7  2  0  0  0
  7  8  1  0  0  0
  8  9  2  0  0  0
  9 10  1  0  0  0
 10 11  2  0  0  0
 11 12  1  0  0  0
  8 25  1  0  0  0
 25 26  1  0  0  0
 26 27  2  0  0  0
 27 28  1  0  0  0
 28 29  1  0  0  0
 28 30  1  0  0  0
 18 13  1  0  0  0
 12  3  1  0  0  0
 30 25  2  0  0  0
 11  6  1  0  0  0
M  END
> <minimizedAffinity>
-3.65222

> <CNNscore>
0.2988942862

> <CNNaffinity>
5.3246855736

> <CNN_VS>
1.5915180445

> <CNNaffinity_variance>
1.4521532059

$$$$
[H]OC(=O)[C@]1([H])C([H])([H])C([H])([H])c2c(n([H])c3c([H])c([H])c([H])c([H])c23)[C@]2([H])C([H])([H])[C@]([H])(N([H])[H])C([H])([H])[C@@]12[H]


 25 28  0  0  0  0  0  0  0  0999 V2000
    1.2051  -50.9430  -25.4959 N   0  0  0  0  0  0  0  0  0  0  0  0
    1.2807  -51.8976  -24.4272 C   0  0  0  0  0  0  0  0  0  0  0  0
   -0.1011  -52.4612  -24.1070 C   0  0  0  0  0  0  0  0  0  0  0  0
   -0.1294  -52.7622  -22.6522 C   0  0  0  0  0  0  0  0  0  0  0  0
   -0.2133  -54.2085  -22.3066 C   0  0  0  0  0  0  0  0  0  0  0  0
    0.2212  -54.4801  -20.8969 C   0  0  0  0  0  0  0  0  0  0  0  0
   -0.5102  -53.6782  -19.8707 C   0  0  0  0  0  0  0  0  0  0  0  0
    0.1699  -52.3360  -19.7984 C   0  0  0  0  0  0  0  0  0  0  0  0
    0.9211  -51.6893  -20.7712 C   0  0  0  0  0  0  0  0  0  0  0  0
    1.3519  -50.5030  -20.3019 N   0  0  0  0  0  0  0  0  0  0  0  0
    0.8875  -50.3801  -19.0422 C   0  0  0  0  0  0  0  0  0  0  0  0
    1.0485  -49.3573  -18.1370 C   0  0  0  0  0  0  0  0  0  0  0  0
    0.4583  -49.4848  -16.8932 C   0  0  0  0  0  0  0  0  0  0  0  0
   -0.2801  -50.6162  -16.5615 C   0  0  0  0  0  0  0  0  0  0  0  0
   -0.4360  -51.6379  -17.4777 C   0  0  0  0  0  0  0  0  0  0  0  0
    0.1559  -51.5013  -18.7138 C   0  0  0  0  0  0  0  0  0  0  0  0
    1.2000  -52.2296  -22.1153 C   0  0  0  0  0  0  0  0  0  0  0  0
    1.5910  -51.1688  -23.1122 C   0  0  0  0  0  0  0  0  0  0  0  0
    0.5471  -50.1950  -25.2267 H   0  0  0  0  0  0  0  0  0  0  0  0
    2.1371  -50.5276  -25.6454 H   0  0  0  0  0  0  0  0  0  0  0  0
    1.9351  -49.7978  -20.8015 H   0  0  0  0  0  0  0  0  0  0  0  0
   -1.5417  -54.7968  -22.5460 C   0  0  0  0  0  0  0  0  0  0  0  0
   -1.7591  -55.4842  -23.7290 O   0  0  0  0  0  0  0  0  0  0  0  0
   -2.4965  -54.7105  -21.7336 O   0  0  0  0  0  0  0  0  0  0  0  0
   -1.3216  -56.3777  -23.9084 H   0  0  0  0  0  0  0  0  0  0  0  0
  1  2  1  0  0  0
  2  3  1  0  0  0
  3  4  1  0  0  0
  4  5  1  0  0  0
  5  6  1  0  0  0
  6  7  1  0  0  0
  7  8  1  0  0  0
  8  9  2  0  0  0
  9 10  1  0  0  0
 10 11  1  0  0  0
 11 12  2  0  0  0
 12 13  1  0  0  0
 13 14  2  0  0  0
 14 15  1  0  0  0
 15 16  2  0  0  0
  9 17  1  0  0  0
 17 18  1  0  0  0
  5 22  1  0  0  0
 22 23  1  0  0  0
 22 24  2  0  0  0
 18  2  1  0  0  0
 17  4  1  0  0  0
 16  8  1  0  0  0
 16 11  1  0  0  0
  1 19  1  0  0  0
  1 20  1  0  0  0
 10 21  1  0  0  0
 23 25  1  0  0  0
M  END
> <minimizedAffinity>
-8.21842

> <CNNscore>
0.5206292272

> <CNNaffinity>
5.5129051208

> <CNN_VS>
2.8701794147

> <CNNaffinity_variance>
0.1517196596

$$$$
[H]OC(=O)[C@]1([H])C([H])([H])C([H])([H])c2c(n([H])c3c([H])c([H])c([H])c([H])c23)[C@]2([H])C([H])([H])[C@]([H])(N([H])[H])C([H])([H])[C@@]12[H]


 25 28  0  0  0  0  0  0  0  0999 V2000
   -1.3725  -55.4845  -22.8413 N   0  0  0  0  0  0  0  0  0  0  0  0
   -1.2096  -54.0838  -22.5757 C   0  0  0  0  0  0  0  0  0  0  0  0
    0.2593  -53.6815  -22.6774 C   0  0  0  0  0  0  0  0  0  0  0  0
    0.4833  -52.5778  -21.7082 C   0  0  0  0  0  0  0  0  0  0  0  0
    0.7876  -51.2529  -22.3169 C   0  0  0  0  0  0  0  0  0  0  0  0
    0.5467  -50.1219  -21.3615 C   0  0  0  0  0  0  0  0  0  0  0  0
    1.2771  -50.2556  -20.0654 C   0  0  0  0  0  0  0  0  0  0  0  0
    0.4436  -51.1487  -19.1839 C   0  0  0  0  0  0  0  0  0  0  0  0
   -0.4850  -52.1129  -19.5543 C   0  0  0  0  0  0  0  0  0  0  0  0
   -1.0097  -52.6874  -18.4552 N   0  0  0  0  0  0  0  0  0  0  0  0
   -0.4309  -52.1051  -17.3860 C   0  0  0  0  0  0  0  0  0  0  0  0
   -0.6216  -52.3351  -16.0435 C   0  0  0  0  0  0  0  0  0  0  0  0
    0.1115  -51.5877  -15.1405 C   0  0  0  0  0  0  0  0  0  0  0  0
    1.0194  -50.6268  -15.5737 C   0  0  0  0  0  0  0  0  0  0  0  0
    1.2038  -50.4033  -16.9241 C   0  0  0  0  0  0  0  0  0  0  0  0
    0.4687  -51.1531  -17.8155 C   0  0  0  0  0  0  0  0  0  0  0  0
   -0.8369  -52.4502  -20.9465 C   0  0  0  0  0  0  0  0  0  0  0  0
   -1.4656  -53.8130  -21.0866 C   0  0  0  0  0  0  0  0  0  0  0  0
   -0.7897  -56.0181  -22.1774 H   0  0  0  0  0  0  0  0  0  0  0  0
   -2.3605  -55.7436  -22.6986 H   0  0  0  0  0  0  0  0  0  0  0  0
   -1.7286  -53.4414  -18.4163 H   0  0  0  0  0  0  0  0  0  0  0  0
    2.1462  -51.1583  -22.8766 C   0  0  0  0  0  0  0  0  0  0  0  0
    2.3608  -50.3200  -23.9584 O   0  0  0  0  0  0  0  0  0  0  0  0
    3.1293  -51.7987  -22.4265 O   0  0  0  0  0  0  0  0  0  0  0  0
    2.3207  -49.3143  -23.8631 H   0  0  0  0  0  0  0  0  0  0  0  0
  1  2  1  0  0  0
  2  3  1  0  0  0
  3  4  1  0  0  0
  4  5  1  0  0  0
  5  6  1  0  0  0
  6  7  1  0  0  0
  7  8  1  0  0  0
  8  9  2  0  0  0
  9 10  1  0  0  0
 10 11  1  0  0  0
 11 12  2  0  0  0
 12 13  1  0  0  0
 13 14  2  0  0  0
 14 15  1  0  0  0
 15 16  2  0  0  0
  9 17  1  0  0  0
 17 18  1  0  0  0
  5 22  1  0  0  0
 22 23  1  0  0  0
 22 24  2  0  0  0
 18  2  1  0  0  0
 17  4  1  0  0  0
 16  8  1  0  0  0
 16 11  1  0  0  0
  1 19  1  0  0  0
  1 20  1  0  0  0
 10 21  1  0  0  0
 23 25  1  0  0  0
M  END
> <minimizedAffinity>
-6.91847

> <CNNscore>
0.4737947285

> <CNNaffinity>
5.4606876373

> <CNN_VS>
2.5872449875

> <CNNaffinity_variance>
0.0986627191

$$$$
[H]OC(=O)[C@]1([H])C([H])([H])C([H])([H])c2c(n([H])c3c([H])c([H])c([H])c([H])c23)[C@]2([H])C([H])([H])[C@]([H])(N([H])[H])C([H])([H])[C@@]12[H]


 25 28  0  0  0  0  0  0  0  0999 V2000
    0.1180  -53.8967  -27.0520 N   0  0  0  0  0  0  0  0  0  0  0  0
    0.5398  -54.0250  -25.6865 C   0  0  0  0  0  0  0  0  0  0  0  0
   -0.6550  -53.9354  -24.7408 C   0  0  0  0  0  0  0  0  0  0  0  0
   -0.1763  -53.3072  -23.4823 C   0  0  0  0  0  0  0  0  0  0  0  0
   -0.1722  -54.2006  -22.2906 C   0  0  0  0  0  0  0  0  0  0  0  0
    0.7242  -53.6889  -21.2022 C   0  0  0  0  0  0  0  0  0  0  0  0
    0.4240  -52.2891  -20.7760 C   0  0  0  0  0  0  0  0  0  0  0  0
    1.1221  -51.3762  -21.7499 C   0  0  0  0  0  0  0  0  0  0  0  0
    1.4991  -51.6310  -23.0621 C   0  0  0  0  0  0  0  0  0  0  0  0
    2.0998  -50.5446  -23.5838 N   0  0  0  0  0  0  0  0  0  0  0  0
    2.1132  -49.5973  -22.6247 C   0  0  0  0  0  0  0  0  0  0  0  0
    2.6110  -48.3156  -22.6556 C   0  0  0  0  0  0  0  0  0  0  0  0
    2.4944  -47.5402  -21.5169 C   0  0  0  0  0  0  0  0  0  0  0  0
    1.8901  -48.0390  -20.3674 C   0  0  0  0  0  0  0  0  0  0  0  0
    1.3933  -49.3275  -20.3465 C   0  0  0  0  0  0  0  0  0  0  0  0
    1.5144  -50.0918  -21.4858 C   0  0  0  0  0  0  0  0  0  0  0  0
    1.2710  -52.9049  -23.7701 C   0  0  0  0  0  0  0  0  0  0  0  0
    1.3137  -52.7663  -25.2704 C   0  0  0  0  0  0  0  0  0  0  0  0
   -0.3822  -53.0008  -27.1620 H   0  0  0  0  0  0  0  0  0  0  0  0
    0.9482  -53.8910  -27.6638 H   0  0  0  0  0  0  0  0  0  0  0  0
    2.4881  -50.4355  -24.5451 H   0  0  0  0  0  0  0  0  0  0  0  0
   -1.5151  -54.4714  -21.7509 C   0  0  0  0  0  0  0  0  0  0  0  0
   -2.3695  -55.2856  -22.4763 O   0  0  0  0  0  0  0  0  0  0  0  0
   -1.9340  -54.0031  -20.6626 O   0  0  0  0  0  0  0  0  0  0  0  0
   -2.1987  -56.2774  -22.5725 H   0  0  0  0  0  0  0  0  0  0  0  0
  1  2  1  0  0  0
  2  3  1  0  0  0
  3  4  1  0  0  0
  4  5  1  0  0  0
  5  6  1  0  0  0
  6  7  1  0  0  0
  7  8  1  0  0  0
  8  9  2  0  0  0
  9 10  1  0  0  0
 10 11  1  0  0  0
 11 12  2  0  0  0
 12 13  1  0  0  0
 13 14  2  0  0  0
 14 15  1  0  0  0
 15 16  2  0  0  0
  9 17  1  0  0  0
 17 18  1  0  0  0
  5 22  1  0  0  0
 22 23  1  0  0  0
 22 24  2  0  0  0
 18  2  1  0  0  0
 17  4  1  0  0  0
 16  8  1  0  0  0
 16 11  1  0  0  0
  1 19  1  0  0  0
  1 20  1  0  0  0
 10 21  1  0  0  0
 23 25  1  0  0  0
M  END
> <minimizedAffinity>
-7.73877

> <CNNscore>
0.4528354406

> <CNNaffinity>
5.6645140648

> <CNN_VS>
2.5650928020

> <CNNaffinity_variance>
0.0744092613

$$$$
[H]OC(=O)[C@]1([H])C([H])([H])C([H])([H])c2c(n([H])c3c([H])c([H])c([H])c([H])c23)[C@]2([H])C([H])([H])[C@]([H])(N([H])[H])C([H])([H])[C@@]12[H]


 25 28  0  0  0  0  0  0  0  0999 V2000
   -1.9696  -51.4838  -15.5557 N   0  0  0  0  0  0  0  0  0  0  0  0
   -0.7604  -51.7319  -16.2874 C   0  0  0  0  0  0  0  0  0  0  0  0
   -0.3550  -50.5016  -17.0948 C   0  0  0  0  0  0  0  0  0  0  0  0
    0.3226  -50.9844  -18.3258 C   0  0  0  0  0  0  0  0  0  0  0  0
    1.7765  -50.6729  -18.4116 C   0  0  0  0  0  0  0  0  0  0  0  0
    2.4866  -51.5513  -19.3986 C   0  0  0  0  0  0  0  0  0  0  0  0
    1.8902  -51.5322  -20.7678 C   0  0  0  0  0  0  0  0  0  0  0  0
    0.7425  -52.5079  -20.7585 C   0  0  0  0  0  0  0  0  0  0  0  0
   -0.0184  -52.9437  -19.6815 C   0  0  0  0  0  0  0  0  0  0  0  0
   -0.9491  -53.8200  -20.1048 N   0  0  0  0  0  0  0  0  0  0  0  0
   -0.7954  -53.9521  -21.4376 C   0  0  0  0  0  0  0  0  0  0  0  0
   -1.4944  -54.7248  -22.3353 C   0  0  0  0  0  0  0  0  0  0  0  0
   -1.1272  -54.6749  -23.6673 C   0  0  0  0  0  0  0  0  0  0  0  0
   -0.0787  -53.8658  -24.0931 C   0  0  0  0  0  0  0  0  0  0  0  0
    0.6170  -53.0935  -23.1837 C   0  0  0  0  0  0  0  0  0  0  0  0
    0.2435  -53.1503  -21.8592 C   0  0  0  0  0  0  0  0  0  0  0  0
    0.1720  -52.5059  -18.2857 C   0  0  0  0  0  0  0  0  0  0  0  0
   -1.0452  -52.7238  -17.4238 C   0  0  0  0  0  0  0  0  0  0  0  0
   -2.7097  -51.2100  -16.2208 H   0  0  0  0  0  0  0  0  0  0  0  0
   -2.2584  -52.3496  -15.0754 H   0  0  0  0  0  0  0  0  0  0  0  0
   -1.6631  -54.3142  -19.5277 H   0  0  0  0  0  0  0  0  0  0  0  0
    2.0611  -49.2577  -18.7014 C   0  0  0  0  0  0  0  0  0  0  0  0
    1.1882  -48.5599  -19.5202 O   0  0  0  0  0  0  0  0  0  0  0  0
    3.0573  -48.6417  -18.2458 O   0  0  0  0  0  0  0  0  0  0  0  0
    0.2556  -48.3186  -19.2135 H   0  0  0  0  0  0  0  0  0  0  0  0
  1  2  1  0  0  0
  2  3  1  0  0  0
  3  4  1  0  0  0
  4  5  1  0  0  0
  5  6  1  0  0  0
  6  7  1  0  0  0
  7  8  1  0  0  0
  8  9  2  0  0  0
  9 10  1  0  0  0
 10 11  1  0  0  0
 11 12  2  0  0  0
 12 13  1  0  0  0
 13 14  2  0  0  0
 14 15  1  0  0  0
 15 16  2  0  0  0
  9 17  1  0  0  0
 17 18  1  0  0  0
  5 22  1  0  0  0
 22 23  1  0  0  0
 22 24  2  0  0  0
 18  2  1  0  0  0
 17  4  1  0  0  0
 16  8  1  0  0  0
 16 11  1  0  0  0
  1 19  1  0  0  0
  1 20  1  0  0  0
 10 21  1  0  0  0
 23 25  1  0  0  0
M  END
> <minimizedAffinity>
-7.45427

> <CNNscore>
0.4295500219

> <CNNaffinity>
5.2735028267

> <CNN_VS>
2.2652332783

> <CNNaffinity_variance>
0.0937998518

$$$$
[H]OC(=O)[C@]1([H])C([H])([H])C([H])([H])c2c(n([H])c3c([H])c([H])c([H])c([H])c23)[C@]2([H])C([H])([H])[C@]([H])(N([H])[H])C([H])([H])[C@@]12[H]


 25 28  0  0  0  0  0  0  0  0999 V2000
    0.3099  -49.1304  -20.5965 N   0  0  0  0  0  0  0  0  0  0  0  0
    1.7063  -49.3528  -20.8403 C   0  0  0  0  0  0  0  0  0  0  0  0
    2.4973  -48.0582  -20.6726 C   0  0  0  0  0  0  0  0  0  0  0  0
    3.6407  -48.1130  -21.6199 C   0  0  0  0  0  0  0  0  0  0  0  0
    4.9845  -48.2116  -20.9852 C   0  0  0  0  0  0  0  0  0  0  0  0
    6.0250  -48.7207  -21.9381 C   0  0  0  0  0  0  0  0  0  0  0  0
    6.1269  -47.9338  -23.2035 C   0  0  0  0  0  0  0  0  0  0  0  0
    5.0574  -48.4529  -24.1286 C   0  0  0  0  0  0  0  0  0  0  0  0
    3.8659  -49.0905  -23.8078 C   0  0  0  0  0  0  0  0  0  0  0  0
    3.1926  -49.3934  -24.9340 N   0  0  0  0  0  0  0  0  0  0  0  0
    3.9354  -48.9591  -25.9717 C   0  0  0  0  0  0  0  0  0  0  0  0
    3.6908  -49.0278  -27.3233 C   0  0  0  0  0  0  0  0  0  0  0  0
    4.6315  -48.4977  -28.1868 C   0  0  0  0  0  0  0  0  0  0  0  0
    5.7966  -47.9090  -27.7057 C   0  0  0  0  0  0  0  0  0  0  0  0
    6.0329  -47.8449  -26.3465 C   0  0  0  0  0  0  0  0  0  0  0  0
    5.0898  -48.3759  -25.4947 C   0  0  0  0  0  0  0  0  0  0  0  0
    3.4142  -49.3871  -22.4352 C   0  0  0  0  0  0  0  0  0  0  0  0
    1.9279  -49.6176  -22.3361 C   0  0  0  0  0  0  0  0  0  0  0  0
   -0.0269  -48.3979  -21.2407 H   0  0  0  0  0  0  0  0  0  0  0  0
   -0.2095  -50.0015  -20.7834 H   0  0  0  0  0  0  0  0  0  0  0  0
    2.2700  -49.8728  -25.0111 H   0  0  0  0  0  0  0  0  0  0  0  0
    5.4394  -46.9547  -20.3677 C   0  0  0  0  0  0  0  0  0  0  0  0
    5.7142  -46.9444  -19.0099 O   0  0  0  0  0  0  0  0  0  0  0  0
    5.5938  -45.8831  -21.0057 O   0  0  0  0  0  0  0  0  0  0  0  0
    6.5146  -47.4310  -18.6296 H   0  0  0  0  0  0  0  0  0  0  0  0
  1  2  1  0  0  0
  2  3  1  0  0  0
  3  4  1  0  0  0
  4  5  1  0  0  0
  5  6  1  0  0  0
  6  7  1  0  0  0
  7  8  1  0  0  0
  8  9  2  0  0  0
  9 10  1  0  0  0
 10 11  1  0  0  0
 11 12  2  0  0  0
 12 13  1  0  0  0
 13 14  2  0  0  0
 14 15  1  0  0  0
 15 16  2  0  0  0
  9 17  1  0  0  0
 17 18  1  0  0  0
  5 22  1  0  0  0
 22 23  1  0  0  0
 22 24  2  0  0  0
 18  2  1  0  0  0
 17  4  1  0  0  0
 16  8  1  0  0  0
 16 11  1  0  0  0
  1 19  1  0  0  0
  1 20  1  0  0  0
 10 21  1  0  0  0
 23 25  1  0  0  0
M  END
> <minimizedAffinity>
-3.52953

> <CNNscore>
0.4218745232

> <CNNaffinity>
4.8247771263

> <CNN_VS>
2.0354504585

> <CNNaffinity_variance>
0.8508629799

$$$$
[H]OC(=O)[C@]1([H])C([H])([H])C([H])([H])c2c(n([H])c3c([H])c([H])c([H])c([H])c23)[C@]2([H])C([H])([H])[C@]([H])(N([H])[H])C([H])([H])[C@@]12[H]


 25 28  0  0  0  0  0  0  0  0999 V2000
    0.8751  -54.4004  -25.6607 N   0  0  0  0  0  0  0  0  0  0  0  0
    0.8042  -53.1171  -25.0226 C   0  0  0  0  0  0  0  0  0  0  0  0
    2.1581  -52.7309  -24.4330 C   0  0  0  0  0  0  0  0  0  0  0  0
    1.8952  -51.9152  -23.2193 C   0  0  0  0  0  0  0  0  0  0  0  0
    2.2997  -50.4852  -23.3178 C   0  0  0  0  0  0  0  0  0  0  0  0
    1.6131  -49.6306  -22.2940 C   0  0  0  0  0  0  0  0  0  0  0  0
    1.7917  -50.1044  -20.8888 C   0  0  0  0  0  0  0  0  0  0  0  0
    0.7594  -51.1761  -20.6542 C   0  0  0  0  0  0  0  0  0  0  0  0
    0.1317  -51.9958  -21.5833 C   0  0  0  0  0  0  0  0  0  0  0  0
   -0.7283  -52.8210  -20.9567 N   0  0  0  0  0  0  0  0  0  0  0  0
   -0.6608  -52.5420  -19.6395 C   0  0  0  0  0  0  0  0  0  0  0  0
   -1.3375  -53.1027  -18.5817 C   0  0  0  0  0  0  0  0  0  0  0  0
   -1.0778  -52.6245  -17.3107 C   0  0  0  0  0  0  0  0  0  0  0  0
   -0.1569  -51.6029  -17.1023 C   0  0  0  0  0  0  0  0  0  0  0  0
    0.5177  -51.0463  -18.1713 C   0  0  0  0  0  0  0  0  0  0  0  0
    0.2518  -51.5297  -19.4333 C   0  0  0  0  0  0  0  0  0  0  0  0
    0.3772  -51.9602  -23.0374 C   0  0  0  0  0  0  0  0  0  0  0  0
   -0.0313  -53.2298  -23.7398 C   0  0  0  0  0  0  0  0  0  0  0  0
    1.1971  -55.0968  -24.9704 H   0  0  0  0  0  0  0  0  0  0  0  0
   -0.0653  -54.6680  -25.9886 H   0  0  0  0  0  0  0  0  0  0  0  0
   -1.3401  -53.5460  -21.3893 H   0  0  0  0  0  0  0  0  0  0  0  0
    3.7559  -50.2776  -23.2519 C   0  0  0  0  0  0  0  0  0  0  0  0
    4.2952  -49.1611  -23.8698 O   0  0  0  0  0  0  0  0  0  0  0  0
    4.5435  -51.0604  -22.6636 O   0  0  0  0  0  0  0  0  0  0  0  0
    4.1374  -48.2300  -23.5088 H   0  0  0  0  0  0  0  0  0  0  0  0
  1  2  1  0  0  0
  2  3  1  0  0  0
  3  4  1  0  0  0
  4  5  1  0  0  0
  5  6  1  0  0  0
  6  7  1  0  0  0
  7  8  1  0  0  0
  8  9  2  0  0  0
  9 10  1  0  0  0
 10 11  1  0  0  0
 11 12  2  0  0  0
 12 13  1  0  0  0
 13 14  2  0  0  0
 14 15  1  0  0  0
 15 16  2  0  0  0
  9 17  1  0  0  0
 17 18  1  0  0  0
  5 22  1  0  0  0
 22 23  1  0  0  0
 22 24  2  0  0  0
 18  2  1  0  0  0
 17  4  1  0  0  0
 16  8  1  0  0  0
 16 11  1  0  0  0
  1 19  1  0  0  0
  1 20  1  0  0  0
 10 21  1  0  0  0
 23 25  1  0  0  0
M  END
> <minimizedAffinity>
-7.14915

> <CNNscore>
0.4213381112

> <CNNaffinity>
5.7910513878

> <CNN_VS>
2.4399907589

> <CNNaffinity_variance>
0.4033835828

$$$$
[H]OC(=O)[C@]1([H])C([H])([H])C([H])([H])c2c(n([H])c3c([H])c([H])c([H])c([H])c23)[C@]2([H])C([H])([H])[C@]([H])(N([H])[H])C([H])([H])[C@@]12[H]


 25 28  0  0  0  0  0  0  0  0999 V2000
    4.8670  -48.4606  -22.9748 N   0  0  0  0  0  0  0  0  0  0  0  0
    3.6529  -48.6807  -22.2424 C   0  0  0  0  0  0  0  0  0  0  0  0
    3.9048  -49.5814  -21.0361 C   0  0  0  0  0  0  0  0  0  0  0  0
    2.6689  -50.3749  -20.8113 C   0  0  0  0  0  0  0  0  0  0  0  0
    1.9321  -50.0572  -19.5565 C   0  0  0  0  0  0  0  0  0  0  0  0
    0.5070  -50.5228  -19.6031 C   0  0  0  0  0  0  0  0  0  0  0  0
    0.3522  -51.9744  -19.9192 C   0  0  0  0  0  0  0  0  0  0  0  0
    0.4209  -52.1052  -21.4184 C   0  0  0  0  0  0  0  0  0  0  0  0
    1.0318  -51.2613  -22.3369 C   0  0  0  0  0  0  0  0  0  0  0  0
    0.8599  -51.7418  -23.5830 N   0  0  0  0  0  0  0  0  0  0  0  0
    0.1476  -52.8814  -23.4763 C   0  0  0  0  0  0  0  0  0  0  0  0
   -0.2876  -53.7461  -24.4531 C   0  0  0  0  0  0  0  0  0  0  0  0
   -1.0113  -54.8592  -24.0673 C   0  0  0  0  0  0  0  0  0  0  0  0
   -1.2944  -55.1023  -22.7271 C   0  0  0  0  0  0  0  0  0  0  0  0
   -0.8527  -54.2279  -21.7536 C   0  0  0  0  0  0  0  0  0  0  0  0
   -0.1327  -53.1221  -22.1482 C   0  0  0  0  0  0  0  0  0  0  0  0
    1.7582  -50.0254  -21.9894 C   0  0  0  0  0  0  0  0  0  0  0  0
    2.7163  -49.5779  -23.0636 C   0  0  0  0  0  0  0  0  0  0  0  0
    5.2517  -49.3743  -23.2616 H   0  0  0  0  0  0  0  0  0  0  0  0
    4.6572  -47.9084  -23.8201 H   0  0  0  0  0  0  0  0  0  0  0  0
    1.2043  -51.3268  -24.4753 H   0  0  0  0  0  0  0  0  0  0  0  0
    2.5887  -50.5670  -18.3411 C   0  0  0  0  0  0  0  0  0  0  0  0
    2.1716  -50.0859  -17.1107 O   0  0  0  0  0  0  0  0  0  0  0  0
    3.5121  -51.4192  -18.3556 O   0  0  0  0  0  0  0  0  0  0  0  0
    1.2652  -50.3229  -16.7309 H   0  0  0  0  0  0  0  0  0  0  0  0
  1  2  1  0  0  0
  2  3  1  0  0  0
  3  4  1  0  0  0
  4  5  1  0  0  0
  5  6  1  0  0  0
  6  7  1  0  0  0
  7  8  1  0  0  0
  8  9  2  0  0  0
  9 10  1  0  0  0
 10 11  1  0  0  0
 11 12  2  0  0  0
 12 13  1  0  0  0
 13 14  2  0  0  0
 14 15  1  0  0  0
 15 16  2  0  0  0
  9 17  1  0  0  0
 17 18  1  0  0  0
  5 22  1  0  0  0
 22 23  1  0  0  0
 22 24  2  0  0  0
 18  2  1  0  0  0
 17  4  1  0  0  0
 16  8  1  0  0  0
 16 11  1  0  0  0
  1 19  1  0  0  0
  1 20  1  0  0  0
 10 21  1  0  0  0
 23 25  1  0  0  0
M  END
> <minimizedAffinity>
-7.28831

> <CNNscore>
0.3823603690

> <CNNaffinity>
5.2835755348

> <CNN_VS>
2.0202298164

> <CNNaffinity_variance>
0.0651177317

$$$$
[H]OC(=O)[C@]1([H])C([H])([H])C([H])([H])c2c(n([H])c3c([H])c([H])c([H])c([H])c23)[C@]2([H])C([H])([H])[C@]([H])(N([H])[H])C([H])([H])[C@@]12[H]


 25 28  0  0  0  0  0  0  0  0999 V2000
   -1.3026  -56.1014  -24.2871 N   0  0  0  0  0  0  0  0  0  0  0  0
   -0.9488  -54.7493  -24.6120 C   0  0  0  0  0  0  0  0  0  0  0  0
    0.3098  -54.7121  -25.4747 C   0  0  0  0  0  0  0  0  0  0  0  0
    1.0387  -53.4616  -25.1394 C   0  0  0  0  0  0  0  0  0  0  0  0
    1.0899  -52.4472  -26.2288 C   0  0  0  0  0  0  0  0  0  0  0  0
    1.4075  -51.0757  -25.7111 C   0  0  0  0  0  0  0  0  0  0  0  0
    2.6630  -51.0064  -24.9049 C   0  0  0  0  0  0  0  0  0  0  0  0
    2.3067  -51.4288  -23.5035 C   0  0  0  0  0  0  0  0  0  0  0  0
    1.2592  -52.2363  -23.0795 C   0  0  0  0  0  0  0  0  0  0  0  0
    1.2966  -52.3666  -21.7398 N   0  0  0  0  0  0  0  0  0  0  0  0
    2.3529  -51.6542  -21.2992 C   0  0  0  0  0  0  0  0  0  0  0  0
    2.8201  -51.4665  -20.0194 C   0  0  0  0  0  0  0  0  0  0  0  0
    3.9408  -50.6767  -19.8407 C   0  0  0  0  0  0  0  0  0  0  0  0
    4.5825  -50.0853  -20.9241 C   0  0  0  0  0  0  0  0  0  0  0  0
    4.1055  -50.2800  -22.2056 C   0  0  0  0  0  0  0  0  0  0  0  0
    2.9885  -51.0683  -22.3729 C   0  0  0  0  0  0  0  0  0  0  0  0
    0.2600  -52.8544  -23.9714 C   0  0  0  0  0  0  0  0  0  0  0  0
   -0.4380  -54.0377  -23.3513 C   0  0  0  0  0  0  0  0  0  0  0  0
   -0.5047  -56.5470  -23.8075 H   0  0  0  0  0  0  0  0  0  0  0  0
   -2.1126  -56.0955  -23.6487 H   0  0  0  0  0  0  0  0  0  0  0  0
    0.6423  -52.9107  -21.1376 H   0  0  0  0  0  0  0  0  0  0  0  0
    2.0128  -52.7993  -27.3206 C   0  0  0  0  0  0  0  0  0  0  0  0
    1.6694  -52.4523  -28.6171 O   0  0  0  0  0  0  0  0  0  0  0  0
    3.1018  -53.4008  -27.1432 O   0  0  0  0  0  0  0  0  0  0  0  0
    1.6632  -51.4883  -28.9216 H   0  0  0  0  0  0  0  0  0  0  0  0
  1  2  1  0  0  0
  2  3  1  0  0  0
  3  4  1  0  0  0
  4  5  1  0  0  0
  5  6  1  0  0  0
  6  7  1  0  0  0
  7  8  1  0  0  0
  8  9  2  0  0  0
  9 10  1  0  0  0
 10 11  1  0  0  0
 11 12  2  0  0  0
 12 13  1  0  0  0
 13 14  2  0  0  0
 14 15  1  0  0  0
 15 16  2  0  0  0
  9 17  1  0  0  0
 17 18  1  0  0  0
  5 22  1  0  0  0
 22 23  1  0  0  0
 22 24  2  0  0  0
 18  2  1  0  0  0
 17  4  1  0  0  0
 16  8  1  0  0  0
 16 11  1  0  0  0
  1 19  1  0  0  0
  1 20  1  0  0  0
 10 21  1  0  0  0
 23 25  1  0  0  0
M  END
> <minimizedAffinity>
-7.75714

> <CNNscore>
0.3248308897

> <CNNaffinity>
5.8568763733

> <CNN_VS>
1.9024943113

> <CNNaffinity_variance>
0.1720478684

$$$$
[H]OC(=O)[C@]1([H])C([H])([H])C([H])([H])c2c(n([H])c3c([H])c([H])c([H])c([H])c23)[C@]2([H])C([H])([H])[C@]([H])(N([H])[H])C([H])([H])[C@@]12[H]


 25 28  0  0  0  0  0  0  0  0999 V2000
   -1.2618  -53.2103  -18.0033 N   0  0  0  0  0  0  0  0  0  0  0  0
   -0.1227  -52.7864  -18.7660 C   0  0  0  0  0  0  0  0  0  0  0  0
   -0.2414  -51.3115  -19.1407 C   0  0  0  0  0  0  0  0  0  0  0  0
    0.4273  -51.1343  -20.4556 C   0  0  0  0  0  0  0  0  0  0  0  0
    1.6743  -50.3203  -20.4270 C   0  0  0  0  0  0  0  0  0  0  0  0
    2.5319  -50.5553  -21.6349 C   0  0  0  0  0  0  0  0  0  0  0  0
    1.8249  -50.3404  -22.9330 C   0  0  0  0  0  0  0  0  0  0  0  0
    1.0803  -51.6131  -23.2413 C   0  0  0  0  0  0  0  0  0  0  0  0
    0.6268  -52.5887  -22.3629 C   0  0  0  0  0  0  0  0  0  0  0  0
    0.0068  -53.5678  -23.0487 N   0  0  0  0  0  0  0  0  0  0  0  0
    0.0566  -53.2337  -24.3538 C   0  0  0  0  0  0  0  0  0  0  0  0
   -0.4308  -53.8979  -25.4550 C   0  0  0  0  0  0  0  0  0  0  0  0
   -0.2424  -53.3273  -26.7002 C   0  0  0  0  0  0  0  0  0  0  0  0
    0.4222  -52.1132  -26.8405 C   0  0  0  0  0  0  0  0  0  0  0  0
    0.9079  -51.4540  -25.7283 C   0  0  0  0  0  0  0  0  0  0  0  0
    0.7151  -52.0307  -24.4925 C   0  0  0  0  0  0  0  0  0  0  0  0
    0.8027  -52.5492  -20.8989 C   0  0  0  0  0  0  0  0  0  0  0  0
   -0.1734  -53.4281  -20.1596 C   0  0  0  0  0  0  0  0  0  0  0  0
   -2.1157  -53.0299  -18.5540 H   0  0  0  0  0  0  0  0  0  0  0  0
   -1.1907  -54.2233  -17.8230 H   0  0  0  0  0  0  0  0  0  0  0  0
   -0.4350  -54.4297  -22.6628 H   0  0  0  0  0  0  0  0  0  0  0  0
    1.4340  -48.8780  -20.2531 C   0  0  0  0  0  0  0  0  0  0  0  0
    1.9321  -48.2546  -19.1207 O   0  0  0  0  0  0  0  0  0  0  0  0
    0.7987  -48.1750  -21.0785 O   0  0  0  0  0  0  0  0  0  0  0  0
    2.9245  -48.1140  -18.9887 H   0  0  0  0  0  0  0  0  0  0  0  0
  1  2  1  0  0  0
  2  3  1  0  0  0
  3  4  1  0  0  0
  4  5  1  0  0  0
  5  6  1  0  0  0
  6  7  1  0  0  0
  7  8  1  0  0  0
  8  9  2  0  0  0
  9 10  1  0  0  0
 10 11  1  0  0  0
 11 12  2  0  0  0
 12 13  1  0  0  0
 13 14  2  0  0  0
 14 15  1  0  0  0
 15 16  2  0  0  0
  9 17  1  0  0  0
 17 18  1  0  0  0
  5 22  1  0  0  0
 22 23  1  0  0  0
 22 24  2  0  0  0
 18  2  1  0  0  0
 17  4  1  0  0  0
 16  8  1  0  0  0
 16 11  1  0  0  0
  1 19  1  0  0  0
  1 20  1  0  0  0
 10 21  1  0  0  0
 23 25  1  0  0  0
M  END
> <minimizedAffinity>
-8.01253

> <CNNscore>
0.3061414063

> <CNNaffinity>
5.5552949905

> <CNN_VS>
1.7007057667

> <CNNaffinity_variance>
0.3664618134

$$$$
[H]Oc1c([H])c([H])c(C([H])([H])[C@@]([H])(C(=O)N([H])[C@]([H])(C(=O)N([H])[C@]([H])(C(=O)N([H])[H])C([H])([H])c2c([H])c([H])c([H])c([H])c2[H])[C@@]([H])(C([H])([H])[H])C([H])([H])C([H])([H])[H])N([H])C(=O)[C@@]2([H])N(C(=O)[C@@]([H])(N([H])[H])C([H])([H])C([H])([H])C([H])([H])N=C(N([H])[H])N([H])[H])C([H])([H])C([H])([H])C2([H])[H])c([H])c1[H]


 62 64  0  0  0  0  0  0  0  0999 V2000
    2.9024  -48.8709  -21.7846 C   0  0  0  0  0  0  0  0  0  0  0  0
    3.9789  -48.9904  -20.8965 N   0  0  0  0  0  0  0  0  0  0  0  0
    5.0073  -49.1064  -20.0463 C   0  0  0  0  0  0  0  0  0  0  0  0
    5.1735  -50.0066  -19.1618 O   0  0  0  0  0  0  0  0  0  0  0  0
    3.4383  -50.1595  -20.4619 H   0  0  0  0  0  0  0  0  0  0  0  0
    6.1844  -48.1287  -19.9982 C   0  0  0  0  0  0  0  0  0  0  0  0
    5.5926  -46.7497  -20.1774 C   0  0  0  0  0  0  0  0  0  0  0  0
    6.7861  -45.9867  -20.6902 C   0  0  0  0  0  0  0  0  0  0  0  0
    7.5987  -46.9918  -21.4541 C   0  0  0  0  0  0  0  0  0  0  0  0
    7.0039  -48.2704  -21.1973 N   0  0  0  0  0  0  0  0  0  0  0  0
    7.2041  -49.4655  -21.9454 C   0  0  0  0  0  0  0  0  0  0  0  0
    6.5869  -50.5002  -21.4239 O   0  0  0  0  0  0  0  0  0  0  0  0
    7.9239  -49.7673  -23.1421 C   0  0  0  0  0  0  0  0  0  0  0  0
    7.7566  -51.1910  -23.5569 N   0  0  0  0  0  0  0  0  0  0  0  0
    7.6823  -51.7236  -22.6665 H   0  0  0  0  0  0  0  0  0  0  0  0
    6.8722  -51.2208  -24.1157 H   0  0  0  0  0  0  0  0  0  0  0  0
    8.1044  -48.8743  -24.2763 C   0  0  0  0  0  0  0  0  0  0  0  0
    7.1442  -49.0448  -25.4263 C   0  0  0  0  0  0  0  0  0  0  0  0
    7.5023  -48.1184  -26.5779 C   0  0  0  0  0  0  0  0  0  0  0  0
    8.5747  -48.6860  -27.3860 N   0  0  0  0  0  0  0  0  0  0  0  0
    8.4257  -48.9112  -28.6385 C   0  0  0  0  0  0  0  0  0  0  0  0
    7.2928  -48.6740  -29.4269 N   0  0  0  0  0  0  0  0  0  0  0  0
    9.5701  -49.4733  -29.3294 N   0  0  0  0  0  0  0  0  0  0  0  0
    6.7972  -49.3868  -30.0005 H   0  0  0  0  0  0  0  0  0  0  0  0
    6.8760  -47.7141  -29.4700 H   0  0  0  0  0  0  0  0  0  0  0  0
   10.4065  -48.8593  -29.3733 H   0  0  0  0  0  0  0  0  0  0  0  0
    9.5189  -50.4412  -29.7385 H   0  0  0  0  0  0  0  0  0  0  0  0
    1.9747  -51.0867  -20.8394 N   0  0  0  0  0  0  0  0  0  0  0  0
    1.7993  -49.8166  -21.4185 C   0  0  0  0  0  0  0  0  0  0  0  0
    0.6256  -49.4501  -21.6694 O   0  0  0  0  0  0  0  0  0  0  0  0
    2.9406  -51.3444  -20.5844 H   0  0  0  0  0  0  0  0  0  0  0  0
    0.9508  -52.0537  -20.5481 C   0  0  0  0  0  0  0  0  0  0  0  0
    0.1564  -52.4023  -21.7324 C   0  0  0  0  0  0  0  0  0  0  0  0
   -0.9525  -51.8006  -21.8557 O   0  0  0  0  0  0  0  0  0  0  0  0
    0.5044  -53.3339  -22.7185 N   0  0  0  0  0  0  0  0  0  0  0  0
    1.3907  -53.8433  -22.6975 H   0  0  0  0  0  0  0  0  0  0  0  0
   -0.4752  -53.5339  -23.8254 C   0  0  0  0  0  0  0  0  0  0  0  0
   -1.0909  -54.8849  -23.4811 C   0  0  0  0  0  0  0  0  0  0  0  0
   -1.1219  -55.9324  -24.4309 N   0  0  0  0  0  0  0  0  0  0  0  0
   -1.5939  -55.1258  -22.3620 O   0  0  0  0  0  0  0  0  0  0  0  0
   -1.5148  -55.7200  -25.3943 H   0  0  0  0  0  0  0  0  0  0  0  0
   -0.7838  -56.8819  -24.2310 H   0  0  0  0  0  0  0  0  0  0  0  0
    0.3286  -53.6332  -25.0482 C   0  0  0  0  0  0  0  0  0  0  0  0
   -0.2170  -53.2690  -26.3294 C   0  0  0  0  0  0  0  0  0  0  0  0
    0.4284  -53.6485  -27.5137 C   0  0  0  0  0  0  0  0  0  0  0  0
   -0.1092  -53.3202  -28.7468 C   0  0  0  0  0  0  0  0  0  0  0  0
   -1.2948  -52.6097  -28.8556 C   0  0  0  0  0  0  0  0  0  0  0  0
   -1.9346  -52.2332  -27.6892 C   0  0  0  0  0  0  0  0  0  0  0  0
   -1.3832  -52.5709  -26.4801 C   0  0  0  0  0  0  0  0  0  0  0  0
    0.1066  -51.7333  -19.3768 C   0  0  0  0  0  0  0  0  0  0  0  0
   -0.5918  -52.9780  -18.8084 C   0  0  0  0  0  0  0  0  0  0  0  0
   -0.1548  -50.8820  -17.0228 C   0  0  0  0  0  0  0  0  0  0  0  0
    0.6763  -50.8952  -18.2944 C   0  0  0  0  0  0  0  0  0  0  0  0
    3.2573  -48.7610  -23.2066 C   0  0  0  0  0  0  0  0  0  0  0  0
    3.3993  -49.9198  -24.0370 C   0  0  0  0  0  0  0  0  0  0  0  0
    4.1496  -51.0037  -23.7089 C   0  0  0  0  0  0  0  0  0  0  0  0
    4.2562  -52.1105  -24.5393 C   0  0  0  0  0  0  0  0  0  0  0  0
    3.5983  -52.1585  -25.7442 C   0  0  0  0  0  0  0  0  0  0  0  0
    3.6861  -53.2433  -26.5882 O   0  0  0  0  0  0  0  0  0  0  0  0
    2.8249  -51.0608  -26.0957 C   0  0  0  0  0  0  0  0  0  0  0  0
    2.7400  -49.9947  -25.2656 C   0  0  0  0  0  0  0  0  0  0  0  0
    4.2460  -54.0298  -26.3266 H   0  0  0  0  0  0  0  0  0  0  0  0
 52 53  1  0  0  0
 53 50  1  0  0  0
 50 51  1  0  0  0
 50 32  1  0  0  0
 32 28  1  0  0  0
 28 29  1  0  0  0
 29 30  2  0  0  0
 29  1  1  0  0  0
  1 54  1  0  0  0
 54 55  1  0  0  0
 55 56  2  0  0  0
 56 57  1  0  0  0
 57 58  2  0  0  0
 58 59  1  0  0  0
 58 60  1  0  0  0
 60 61  2  0  0  0
  1  2  1  0  0  0
  2  3  1  0  0  0
  3  4  2  0  0  0
  3  6  1  0  0  0
  6  7  1  0  0  0
  7  8  1  0  0  0
  8  9  1  0  0  0
  9 10  1  0  0  0
 10 11  1  0  0  0
 11 12  2  0  0  0
 11 13  1  0  0  0
 13 14  1  0  0  0
 13 17  1  0  0  0
 17 18  1  0  0  0
 18 19  1  0  0  0
 19 20  1  0  0  0
 20 21  2  0  0  0
 21 22  1  0  0  0
 21 23  1  0  0  0
 32 33  1  0  0  0
 33 34  2  0  0  0
 33 35  1  0  0  0
 35 37  1  0  0  0
 37 43  1  0  0  0
 43 44  1  0  0  0
 44 45  2  0  0  0
 45 46  1  0  0  0
 46 47  2  0  0  0
 47 48  1  0  0  0
 48 49  2  0  0  0
 37 38  1  0  0  0
 38 39  1  0  0  0
 38 40  2  0  0  0
 61 55  1  0  0  0
 10  6  1  0  0  0
 49 44  1  0  0  0
 28 31  1  0  0  0
 59 62  1  0  0  0
  2  5  1  0  0  0
 14 15  1  0  0  0
 14 16  1  0  0  0
 22 24  1  0  0  0
 22 25  1  0  0  0
 23 26  1  0  0  0
 23 27  1  0  0  0
 35 36  1  0  0  0
 39 41  1  0  0  0
 39 42  1  0  0  0
M  END
> <minimizedAffinity>
-8.31266

> <CNNscore>
0.5460872650

> <CNNaffinity>
7.8085160255

> <CNN_VS>
4.2641310692

> <CNNaffinity_variance>
0.3268232942

$$$$
[H]Oc1c([H])c([H])c(C([H])([H])[C@@]([H])(C(=O)N([H])[C@]([H])(C(=O)N([H])[C@]([H])(C(=O)N([H])[H])C([H])([H])c2c([H])c([H])c([H])c([H])c2[H])[C@@]([H])(C([H])([H])[H])C([H])([H])C([H])([H])[H])N([H])C(=O)[C@@]2([H])N(C(=O)[C@@]([H])(N([H])[H])C([H])([H])C([H])([H])C([H])([H])N=C(N([H])[H])N([H])[H])C([H])([H])C([H])([H])C2([H])[H])c([H])c1[H]


 62 64  0  0  0  0  0  0  0  0999 V2000
    2.8904  -48.5652  -21.9997 C   0  0  0  0  0  0  0  0  0  0  0  0
    3.2563  -48.0994  -20.7304 N   0  0  0  0  0  0  0  0  0  0  0  0
    3.6049  -47.6555  -19.5158 C   0  0  0  0  0  0  0  0  0  0  0  0
    3.1871  -48.0856  -18.3930 O   0  0  0  0  0  0  0  0  0  0  0  0
    2.5039  -49.0955  -20.1923 H   0  0  0  0  0  0  0  0  0  0  0  0
    4.5916  -46.5088  -19.2811 C   0  0  0  0  0  0  0  0  0  0  0  0
    4.0230  -45.3104  -20.0054 C   0  0  0  0  0  0  0  0  0  0  0  0
    5.2638  -44.4817  -20.2128 C   0  0  0  0  0  0  0  0  0  0  0  0
    6.3835  -45.4732  -20.3439 C   0  0  0  0  0  0  0  0  0  0  0  0
    5.8291  -46.7534  -20.0148 N   0  0  0  0  0  0  0  0  0  0  0  0
    6.3963  -48.0257  -20.3111 C   0  0  0  0  0  0  0  0  0  0  0  0
    5.6984  -49.0206  -19.8145 O   0  0  0  0  0  0  0  0  0  0  0  0
    7.5531  -48.4408  -21.0396 C   0  0  0  0  0  0  0  0  0  0  0  0
    7.8027  -49.9066  -20.9138 N   0  0  0  0  0  0  0  0  0  0  0  0
    7.4929  -50.1506  -19.9513 H   0  0  0  0  0  0  0  0  0  0  0  0
    7.2122  -50.3583  -21.6505 H   0  0  0  0  0  0  0  0  0  0  0  0
    7.9888  -47.9096  -22.3220 C   0  0  0  0  0  0  0  0  0  0  0  0
    8.6444  -48.8851  -23.2664 C   0  0  0  0  0  0  0  0  0  0  0  0
    9.1271  -48.1838  -24.5266 C   0  0  0  0  0  0  0  0  0  0  0  0
    9.5539  -49.1530  -25.5285 N   0  0  0  0  0  0  0  0  0  0  0  0
    8.8234  -49.4383  -26.5418 C   0  0  0  0  0  0  0  0  0  0  0  0
    7.5660  -48.9167  -26.8707 N   0  0  0  0  0  0  0  0  0  0  0  0
    9.3645  -50.4147  -27.4674 N   0  0  0  0  0  0  0  0  0  0  0  0
    6.7041  -49.4768  -27.0320 H   0  0  0  0  0  0  0  0  0  0  0  0
    7.4379  -47.8820  -26.9709 H   0  0  0  0  0  0  0  0  0  0  0  0
   10.2269  -50.1217  -27.9664 H   0  0  0  0  0  0  0  0  0  0  0  0
    8.8908  -51.3457  -27.5920 H   0  0  0  0  0  0  0  0  0  0  0  0
    1.6347  -50.4920  -20.8274 N   0  0  0  0  0  0  0  0  0  0  0  0
    2.3397  -49.9564  -21.9208 C   0  0  0  0  0  0  0  0  0  0  0  0
    2.5439  -50.7085  -22.9044 O   0  0  0  0  0  0  0  0  0  0  0  0
    1.4235  -49.8410  -20.0553 H   0  0  0  0  0  0  0  0  0  0  0  0
    1.1614  -51.8421  -20.6805 C   0  0  0  0  0  0  0  0  0  0  0  0
    0.2887  -52.2531  -21.7872 C   0  0  0  0  0  0  0  0  0  0  0  0
   -0.7818  -51.5890  -21.9281 O   0  0  0  0  0  0  0  0  0  0  0  0
    0.5247  -53.3044  -22.6820 N   0  0  0  0  0  0  0  0  0  0  0  0
    1.3748  -53.8713  -22.6434 H   0  0  0  0  0  0  0  0  0  0  0  0
   -0.5187  -53.5465  -23.7199 C   0  0  0  0  0  0  0  0  0  0  0  0
   -1.1457  -54.8566  -23.2580 C   0  0  0  0  0  0  0  0  0  0  0  0
   -1.2134  -55.9742  -24.1222 N   0  0  0  0  0  0  0  0  0  0  0  0
   -1.6265  -55.0017  -22.1129 O   0  0  0  0  0  0  0  0  0  0  0  0
   -1.6251  -55.8309  -25.0905 H   0  0  0  0  0  0  0  0  0  0  0  0
   -0.8845  -56.9105  -23.8561 H   0  0  0  0  0  0  0  0  0  0  0  0
    0.2139  -53.7431  -24.9752 C   0  0  0  0  0  0  0  0  0  0  0  0
   -0.3553  -53.3531  -26.2384 C   0  0  0  0  0  0  0  0  0  0  0  0
   -1.5215  -52.5782  -26.2866 C   0  0  0  0  0  0  0  0  0  0  0  0
   -2.0555  -52.1814  -27.5010 C   0  0  0  0  0  0  0  0  0  0  0  0
   -1.4628  -52.5331  -28.7039 C   0  0  0  0  0  0  0  0  0  0  0  0
   -0.3118  -53.2980  -28.6606 C   0  0  0  0  0  0  0  0  0  0  0  0
    0.1985  -53.6777  -27.4459 C   0  0  0  0  0  0  0  0  0  0  0  0
    0.5814  -52.1584  -19.3573 C   0  0  0  0  0  0  0  0  0  0  0  0
    0.4006  -50.9037  -18.4894 C   0  0  0  0  0  0  0  0  0  0  0  0
   -1.3740  -52.9430  -17.9807 C   0  0  0  0  0  0  0  0  0  0  0  0
   -0.6138  -53.0336  -19.2929 C   0  0  0  0  0  0  0  0  0  0  0  0
    3.8372  -48.2712  -23.0848 C   0  0  0  0  0  0  0  0  0  0  0  0
    3.8555  -46.9979  -23.7412 C   0  0  0  0  0  0  0  0  0  0  0  0
    4.7535  -46.0151  -23.4704 C   0  0  0  0  0  0  0  0  0  0  0  0
    4.7414  -44.7963  -24.1341 C   0  0  0  0  0  0  0  0  0  0  0  0
    3.8092  -44.5282  -25.1066 C   0  0  0  0  0  0  0  0  0  0  0  0
    3.7733  -43.3278  -25.7810 O   0  0  0  0  0  0  0  0  0  0  0  0
    2.8845  -45.5213  -25.3986 C   0  0  0  0  0  0  0  0  0  0  0  0
    2.9202  -46.7005  -24.7344 C   0  0  0  0  0  0  0  0  0  0  0  0
    4.4436  -42.6179  -25.5637 H   0  0  0  0  0  0  0  0  0  0  0  0
 52 53  1  0  0  0
 53 50  1  0  0  0
 50 51  1  0  0  0
 50 32  1  0  0  0
 32 28  1  0  0  0
 28 29  1  0  0  0
 29 30  2  0  0  0
 29  1  1  0  0  0
  1 54  1  0  0  0
 54 55  1  0  0  0
 55 56  2  0  0  0
 56 57  1  0  0  0
 57 58  2  0  0  0
 58 59  1  0  0  0
 58 60  1  0  0  0
 60 61  2  0  0  0
  1  2  1  0  0  0
  2  3  1  0  0  0
  3  4  2  0  0  0
  3  6  1  0  0  0
  6  7  1  0  0  0
  7  8  1  0  0  0
  8  9  1  0  0  0
  9 10  1  0  0  0
 10 11  1  0  0  0
 11 12  2  0  0  0
 11 13  1  0  0  0
 13 14  1  0  0  0
 13 17  1  0  0  0
 17 18  1  0  0  0
 18 19  1  0  0  0
 19 20  1  0  0  0
 20 21  2  0  0  0
 21 22  1  0  0  0
 21 23  1  0  0  0
 32 33  1  0  0  0
 33 34  2  0  0  0
 33 35  1  0  0  0
 35 37  1  0  0  0
 37 43  1  0  0  0
 43 44  1  0  0  0
 44 45  2  0  0  0
 45 46  1  0  0  0
 46 47  2  0  0  0
 47 48  1  0  0  0
 48 49  2  0  0  0
 37 38  1  0  0  0
 38 39  1  0  0  0
 38 40  2  0  0  0
 61 55  1  0  0  0
 10  6  1  0  0  0
 49 44  1  0  0  0
 28 31  1  0  0  0
 59 62  1  0  0  0
  2  5  1  0  0  0
 14 15  1  0  0  0
 14 16  1  0  0  0
 22 24  1  0  0  0
 22 25  1  0  0  0
 23 26  1  0  0  0
 23 27  1  0  0  0
 35 36  1  0  0  0
 39 41  1  0  0  0
 39 42  1  0  0  0
M  END
> <minimizedAffinity>
-7.74171

> <CNNscore>
0.4039515853

> <CNNaffinity>
7.6093406677

> <CNN_VS>
3.0738053322

> <CNNaffinity_variance>
0.1691167206

$$$$
[H]Oc1c([H])c([H])c(C([H])([H])[C@@]([H])(C(=O)N([H])[C@]([H])(C(=O)N([H])[C@]([H])(C(=O)N([H])[H])C([H])([H])c2c([H])c([H])c([H])c([H])c2[H])[C@@]([H])(C([H])([H])[H])C([H])([H])C([H])([H])[H])N([H])C(=O)[C@@]2([H])N(C(=O)[C@@]([H])(N([H])[H])C([H])([H])C([H])([H])C([H])([H])N=C(N([H])[H])N([H])[H])C([H])([H])C([H])([H])C2([H])[H])c([H])c1[H]


 62 64  0  0  0  0  0  0  0  0999 V2000
    5.0013  -50.1808  -24.1263 C   0  0  0  0  0  0  0  0  0  0  0  0
    5.1898  -48.8847  -24.6229 N   0  0  0  0  0  0  0  0  0  0  0  0
    5.3704  -47.6447  -25.0957 C   0  0  0  0  0  0  0  0  0  0  0  0
    5.7144  -46.6137  -24.4331 O   0  0  0  0  0  0  0  0  0  0  0  0
    5.6088  -48.5143  -23.3839 H   0  0  0  0  0  0  0  0  0  0  0  0
    5.1729  -47.2579  -26.5638 C   0  0  0  0  0  0  0  0  0  0  0  0
    3.9138  -47.9599  -27.0174 C   0  0  0  0  0  0  0  0  0  0  0  0
    4.1300  -48.0085  -28.5075 C   0  0  0  0  0  0  0  0  0  0  0  0
    5.6178  -48.0963  -28.6879 C   0  0  0  0  0  0  0  0  0  0  0  0
    6.1941  -47.8917  -27.3915 N   0  0  0  0  0  0  0  0  0  0  0  0
    7.5243  -48.2090  -26.9941 C   0  0  0  0  0  0  0  0  0  0  0  0
    7.7896  -47.8342  -25.7642 O   0  0  0  0  0  0  0  0  0  0  0  0
    8.6183  -48.8545  -27.6481 C   0  0  0  0  0  0  0  0  0  0  0  0
    8.9523  -50.1684  -27.0245 N   0  0  0  0  0  0  0  0  0  0  0  0
    8.7569  -50.0423  -26.0107 H   0  0  0  0  0  0  0  0  0  0  0  0
    8.3116  -50.8647  -27.4717 H   0  0  0  0  0  0  0  0  0  0  0  0
    8.8912  -48.8307  -29.0769 C   0  0  0  0  0  0  0  0  0  0  0  0
   10.3001  -48.4839  -29.4870 C   0  0  0  0  0  0  0  0  0  0  0  0
   10.3045  -47.5465  -30.6846 C   0  0  0  0  0  0  0  0  0  0  0  0
    9.2149  -47.8672  -31.5984 N   0  0  0  0  0  0  0  0  0  0  0  0
    9.3763  -47.8501  -32.8694 C   0  0  0  0  0  0  0  0  0  0  0  0
   10.5413  -47.5472  -33.5852 N   0  0  0  0  0  0  0  0  0  0  0  0
    8.2153  -48.1931  -33.6676 N   0  0  0  0  0  0  0  0  0  0  0  0
   10.6266  -46.8096  -34.3141 H   0  0  0  0  0  0  0  0  0  0  0  0
   11.4230  -48.0819  -33.4016 H   0  0  0  0  0  0  0  0  0  0  0  0
    7.8763  -49.1689  -33.5602 H   0  0  0  0  0  0  0  0  0  0  0  0
    7.7724  -47.4739  -34.2948 H   0  0  0  0  0  0  0  0  0  0  0  0
    3.2905  -51.3318  -22.5732 N   0  0  0  0  0  0  0  0  0  0  0  0
    3.6613  -50.3121  -23.4687 C   0  0  0  0  0  0  0  0  0  0  0  0
    2.7954  -49.4514  -23.7591 O   0  0  0  0  0  0  0  0  0  0  0  0
    4.0332  -51.9936  -22.2996 H   0  0  0  0  0  0  0  0  0  0  0  0
    1.9943  -51.5376  -21.9850 C   0  0  0  0  0  0  0  0  0  0  0  0
    1.0186  -52.0610  -22.9491 C   0  0  0  0  0  0  0  0  0  0  0  0
    0.5004  -51.2109  -23.7338 O   0  0  0  0  0  0  0  0  0  0  0  0
    0.6075  -53.3943  -23.0709 N   0  0  0  0  0  0  0  0  0  0  0  0
    0.9953  -54.1388  -22.4870 H   0  0  0  0  0  0  0  0  0  0  0  0
   -0.4137  -53.6865  -24.1179 C   0  0  0  0  0  0  0  0  0  0  0  0
   -1.0940  -54.9377  -23.5752 C   0  0  0  0  0  0  0  0  0  0  0  0
   -1.2111  -56.1030  -24.3682 N   0  0  0  0  0  0  0  0  0  0  0  0
   -1.5772  -54.9910  -22.4232 O   0  0  0  0  0  0  0  0  0  0  0  0
   -1.6191  -56.0031  -25.3434 H   0  0  0  0  0  0  0  0  0  0  0  0
   -0.9210  -57.0340  -24.0444 H   0  0  0  0  0  0  0  0  0  0  0  0
    0.3470  -54.0018  -25.3316 C   0  0  0  0  0  0  0  0  0  0  0  0
   -0.0564  -53.4931  -26.6163 C   0  0  0  0  0  0  0  0  0  0  0  0
    0.7555  -53.6766  -27.7433 C   0  0  0  0  0  0  0  0  0  0  0  0
    0.3562  -53.2097  -28.9842 C   0  0  0  0  0  0  0  0  0  0  0  0
   -0.8500  -52.5486  -29.1571 C   0  0  0  0  0  0  0  0  0  0  0  0
   -1.6540  -52.3653  -28.0473 C   0  0  0  0  0  0  0  0  0  0  0  0
   -1.2376  -52.8376  -26.8293 C   0  0  0  0  0  0  0  0  0  0  0  0
    1.4685  -50.3876  -21.2181 C   0  0  0  0  0  0  0  0  0  0  0  0
    0.1608  -50.7281  -20.4872 C   0  0  0  0  0  0  0  0  0  0  0  0
    2.3072  -48.1247  -20.5038 C   0  0  0  0  0  0  0  0  0  0  0  0
    2.3943  -49.6325  -20.3398 C   0  0  0  0  0  0  0  0  0  0  0  0
    6.1558  -50.7745  -23.4374 C   0  0  0  0  0  0  0  0  0  0  0  0
    6.8559  -50.0724  -22.4033 C   0  0  0  0  0  0  0  0  0  0  0  0
    6.3795  -49.9016  -21.1426 C   0  0  0  0  0  0  0  0  0  0  0  0
    7.0926  -49.2196  -20.1666 C   0  0  0  0  0  0  0  0  0  0  0  0
    8.3272  -48.6817  -20.4367 C   0  0  0  0  0  0  0  0  0  0  0  0
    9.0567  -47.9999  -19.4881 O   0  0  0  0  0  0  0  0  0  0  0  0
    8.8315  -48.8478  -21.7192 C   0  0  0  0  0  0  0  0  0  0  0  0
    8.1131  -49.5175  -22.6511 C   0  0  0  0  0  0  0  0  0  0  0  0
    8.6852  -47.8849  -18.5666 H   0  0  0  0  0  0  0  0  0  0  0  0
 52 53  1  0  0  0
 53 50  1  0  0  0
 50 51  1  0  0  0
 50 32  1  0  0  0
 32 28  1  0  0  0
 28 29  1  0  0  0
 29 30  2  0  0  0
 29  1  1  0  0  0
  1 54  1  0  0  0
 54 55  1  0  0  0
 55 56  2  0  0  0
 56 57  1  0  0  0
 57 58  2  0  0  0
 58 59  1  0  0  0
 58 60  1  0  0  0
 60 61  2  0  0  0
  1  2  1  0  0  0
  2  3  1  0  0  0
  3  4  2  0  0  0
  3  6  1  0  0  0
  6  7  1  0  0  0
  7  8  1  0  0  0
  8  9  1  0  0  0
  9 10  1  0  0  0
 10 11  1  0  0  0
 11 12  2  0  0  0
 11 13  1  0  0  0
 13 14  1  0  0  0
 13 17  1  0  0  0
 17 18  1  0  0  0
 18 19  1  0  0  0
 19 20  1  0  0  0
 20 21  2  0  0  0
 21 22  1  0  0  0
 21 23  1  0  0  0
 32 33  1  0  0  0
 33 34  2  0  0  0
 33 35  1  0  0  0
 35 37  1  0  0  0
 37 43  1  0  0  0
 43 44  1  0  0  0
 44 45  2  0  0  0
 45 46  1  0  0  0
 46 47  2  0  0  0
 47 48  1  0  0  0
 48 49  2  0  0  0
 37 38  1  0  0  0
 38 39  1  0  0  0
 38 40  2  0  0  0
 61 55  1  0  0  0
 10  6  1  0  0  0
 49 44  1  0  0  0
 28 31  1  0  0  0
 59 62  1  0  0  0
  2  5  1  0  0  0
 14 15  1  0  0  0
 14 16  1  0  0  0
 22 24  1  0  0  0
 22 25  1  0  0  0
 23 26  1  0  0  0
 23 27  1  0  0  0
 35 36  1  0  0  0
 39 41  1  0  0  0
 39 42  1  0  0  0
M  END
> <minimizedAffinity>
-7.85084

> <CNNscore>
0.3552434742

> <CNNaffinity>
7.4243345261

> <CNN_VS>
2.6374464035

> <CNNaffinity_variance>
0.0781259537

$$$$
[H]Oc1c([H])c([H])c(C([H])([H])[C@@]([H])(C(=O)N([H])[C@]([H])(C(=O)N([H])[C@]([H])(C(=O)N([H])[H])C([H])([H])c2c([H])c([H])c([H])c([H])c2[H])[C@@]([H])(C([H])([H])[H])C([H])([H])C([H])([H])[H])N([H])C(=O)[C@@]2([H])N(C(=O)[C@@]([H])(N([H])[H])C([H])([H])C([H])([H])C([H])([H])N=C(N([H])[H])N([H])[H])C([H])([H])C([H])([H])C2([H])[H])c([H])c1[H]


 62 64  0  0  0  0  0  0  0  0999 V2000
    3.7232  -49.9294  -25.4515 C   0  0  0  0  0  0  0  0  0  0  0  0
    3.7916  -48.5571  -25.1792 N   0  0  0  0  0  0  0  0  0  0  0  0
    3.8574  -47.2454  -24.9168 C   0  0  0  0  0  0  0  0  0  0  0  0
    4.1363  -46.6994  -23.8013 O   0  0  0  0  0  0  0  0  0  0  0  0
    4.2155  -48.8679  -23.9255 H   0  0  0  0  0  0  0  0  0  0  0  0
    3.5863  -46.1559  -25.9577 C   0  0  0  0  0  0  0  0  0  0  0  0
    2.2203  -46.4538  -26.5314 C   0  0  0  0  0  0  0  0  0  0  0  0
    2.3055  -45.7521  -27.8617 C   0  0  0  0  0  0  0  0  0  0  0  0
    3.7527  -45.8249  -28.2545 C   0  0  0  0  0  0  0  0  0  0  0  0
    4.4540  -46.3415  -27.1162 N   0  0  0  0  0  0  0  0  0  0  0  0
    5.7660  -46.8954  -27.1069 C   0  0  0  0  0  0  0  0  0  0  0  0
    6.1741  -47.2135  -25.9003 O   0  0  0  0  0  0  0  0  0  0  0  0
    6.7188  -47.1836  -28.1318 C   0  0  0  0  0  0  0  0  0  0  0  0
    8.1182  -47.1949  -27.6138 N   0  0  0  0  0  0  0  0  0  0  0  0
    8.1345  -46.4708  -26.8672 H   0  0  0  0  0  0  0  0  0  0  0  0
    8.2731  -48.1596  -27.2386 H   0  0  0  0  0  0  0  0  0  0  0  0
    6.5269  -48.1086  -29.2382 C   0  0  0  0  0  0  0  0  0  0  0  0
    6.0832  -47.5079  -30.5480 C   0  0  0  0  0  0  0  0  0  0  0  0
    5.0282  -48.3755  -31.2165 C   0  0  0  0  0  0  0  0  0  0  0  0
    3.7744  -47.6464  -31.3642 N   0  0  0  0  0  0  0  0  0  0  0  0
    3.1916  -47.5344  -32.4998 C   0  0  0  0  0  0  0  0  0  0  0  0
    3.6047  -48.0514  -33.7340 N   0  0  0  0  0  0  0  0  0  0  0  0
    1.9481  -46.7884  -32.5113 N   0  0  0  0  0  0  0  0  0  0  0  0
    3.7619  -47.4947  -34.5989 H   0  0  0  0  0  0  0  0  0  0  0  0
    3.7833  -49.0781  -33.8388 H   0  0  0  0  0  0  0  0  0  0  0  0
    1.1705  -47.2151  -31.9711 H   0  0  0  0  0  0  0  0  0  0  0  0
    1.8806  -45.8796  -33.0368 H   0  0  0  0  0  0  0  0  0  0  0  0
    1.5714  -51.3274  -25.7326 N   0  0  0  0  0  0  0  0  0  0  0  0
    2.4249  -50.5054  -24.9743 C   0  0  0  0  0  0  0  0  0  0  0  0
    2.0632  -50.2113  -23.8091 O   0  0  0  0  0  0  0  0  0  0  0  0
    1.9144  -51.6080  -26.6643 H   0  0  0  0  0  0  0  0  0  0  0  0
    0.2834  -51.8328  -25.3403 C   0  0  0  0  0  0  0  0  0  0  0  0
    0.3582  -52.6989  -24.1573 C   0  0  0  0  0  0  0  0  0  0  0  0
    1.1469  -53.6878  -24.2404 O   0  0  0  0  0  0  0  0  0  0  0  0
   -0.3609  -52.5385  -22.9662 N   0  0  0  0  0  0  0  0  0  0  0  0
   -1.0003  -51.7545  -22.8180 H   0  0  0  0  0  0  0  0  0  0  0  0
   -0.1311  -53.5594  -21.9033 C   0  0  0  0  0  0  0  0  0  0  0  0
   -1.3407  -54.4738  -22.0572 C   0  0  0  0  0  0  0  0  0  0  0  0
   -1.4735  -55.3197  -23.1829 N   0  0  0  0  0  0  0  0  0  0  0  0
   -2.2606  -54.5154  -21.2113 O   0  0  0  0  0  0  0  0  0  0  0  0
   -1.3665  -54.8870  -24.1466 H   0  0  0  0  0  0  0  0  0  0  0  0
   -1.6673  -56.3261  -23.1093 H   0  0  0  0  0  0  0  0  0  0  0  0
   -0.1997  -52.8275  -20.6342 C   0  0  0  0  0  0  0  0  0  0  0  0
    0.7873  -51.8374  -20.2914 C   0  0  0  0  0  0  0  0  0  0  0  0
    0.4737  -50.4726  -20.3344 C   0  0  0  0  0  0  0  0  0  0  0  0
    1.4149  -49.5207  -19.9805 C   0  0  0  0  0  0  0  0  0  0  0  0
    2.6915  -49.8783  -19.5749 C   0  0  0  0  0  0  0  0  0  0  0  0
    3.0051  -51.2241  -19.5314 C   0  0  0  0  0  0  0  0  0  0  0  0
    2.0558  -52.1480  -19.8855 C   0  0  0  0  0  0  0  0  0  0  0  0
   -0.5076  -52.4381  -26.4335 C   0  0  0  0  0  0  0  0  0  0  0  0
   -1.9592  -51.9353  -26.4451 C   0  0  0  0  0  0  0  0  0  0  0  0
   -0.9736  -52.5919  -28.9021 C   0  0  0  0  0  0  0  0  0  0  0  0
    0.0649  -52.4595  -27.8012 C   0  0  0  0  0  0  0  0  0  0  0  0
    4.9467  -50.6962  -25.1774 C   0  0  0  0  0  0  0  0  0  0  0  0
    5.7044  -50.4980  -23.9777 C   0  0  0  0  0  0  0  0  0  0  0  0
    5.2150  -50.7001  -22.7266 C   0  0  0  0  0  0  0  0  0  0  0  0
    5.9846  -50.5027  -21.5887 C   0  0  0  0  0  0  0  0  0  0  0  0
    7.2916  -50.0900  -21.6798 C   0  0  0  0  0  0  0  0  0  0  0  0
    8.0782  -49.8858  -20.5679 O   0  0  0  0  0  0  0  0  0  0  0  0
    7.8099  -49.8802  -22.9502 C   0  0  0  0  0  0  0  0  0  0  0  0
    7.0353  -50.0804  -24.0424 C   0  0  0  0  0  0  0  0  0  0  0  0
    7.6961  -50.0392  -19.6564 H   0  0  0  0  0  0  0  0  0  0  0  0
 52 53  1  0  0  0
 53 50  1  0  0  0
 50 51  1  0  0  0
 50 32  1  0  0  0
 32 28  1  0  0  0
 28 29  1  0  0  0
 29 30  2  0  0  0
 29  1  1  0  0  0
  1 54  1  0  0  0
 54 55  1  0  0  0
 55 56  2  0  0  0
 56 57  1  0  0  0
 57 58  2  0  0  0
 58 59  1  0  0  0
 58 60  1  0  0  0
 60 61  2  0  0  0
  1  2  1  0  0  0
  2  3  1  0  0  0
  3  4  2  0  0  0
  3  6  1  0  0  0
  6  7  1  0  0  0
  7  8  1  0  0  0
  8  9  1  0  0  0
  9 10  1  0  0  0
 10 11  1  0  0  0
 11 12  2  0  0  0
 11 13  1  0  0  0
 13 14  1  0  0  0
 13 17  1  0  0  0
 17 18  1  0  0  0
 18 19  1  0  0  0
 19 20  1  0  0  0
 20 21  2  0  0  0
 21 22  1  0  0  0
 21 23  1  0  0  0
 32 33  1  0  0  0
 33 34  2  0  0  0
 33 35  1  0  0  0
 35 37  1  0  0  0
 37 43  1  0  0  0
 43 44  1  0  0  0
 44 45  2  0  0  0
 45 46  1  0  0  0
 46 47  2  0  0  0
 47 48  1  0  0  0
 48 49  2  0  0  0
 37 38  1  0  0  0
 38 39  1  0  0  0
 38 40  2  0  0  0
 61 55  1  0  0  0
 10  6  1  0  0  0
 49 44  1  0  0  0
 28 31  1  0  0  0
 59 62  1  0  0  0
  2  5  1  0  0  0
 14 15  1  0  0  0
 14 16  1  0  0  0
 22 24  1  0  0  0
 22 25  1  0  0  0
 23 26  1  0  0  0
 23 27  1  0  0  0
 35 36  1  0  0  0
 39 41  1  0  0  0
 39 42  1  0  0  0
M  END
> <minimizedAffinity>
-7.74765

> <CNNscore>
0.2895778418

> <CNNaffinity>
7.3846144676

> <CNN_VS>
2.1384208202

> <CNNaffinity_variance>
0.4265910983

$$$$
[H]Oc1c([H])c([H])c(C([H])([H])[C@@]([H])(C(=O)N([H])[C@]([H])(C(=O)N([H])[C@]([H])(C(=O)N([H])[H])C([H])([H])c2c([H])c([H])c([H])c([H])c2[H])[C@@]([H])(C([H])([H])[H])C([H])([H])C([H])([H])[H])N([H])C(=O)[C@@]2([H])N(C(=O)[C@@]([H])(N([H])[H])C([H])([H])C([H])([H])C([H])([H])N=C(N([H])[H])N([H])[H])C([H])([H])C([H])([H])C2([H])[H])c([H])c1[H]


 62 64  0  0  0  0  0  0  0  0999 V2000
    2.3159  -49.3532  -21.9025 C   0  0  0  0  0  0  0  0  0  0  0  0
    3.4538  -49.6599  -21.1454 N   0  0  0  0  0  0  0  0  0  0  0  0
    4.5405  -49.9533  -20.4197 C   0  0  0  0  0  0  0  0  0  0  0  0
    4.5756  -50.2888  -19.1923 O   0  0  0  0  0  0  0  0  0  0  0  0
    2.6306  -49.9781  -20.1114 H   0  0  0  0  0  0  0  0  0  0  0  0
    5.9672  -49.9191  -20.9741 C   0  0  0  0  0  0  0  0  0  0  0  0
    6.2869  -48.4629  -21.2213 C   0  0  0  0  0  0  0  0  0  0  0  0
    7.3792  -48.5772  -22.2525 C   0  0  0  0  0  0  0  0  0  0  0  0
    7.0657  -49.8271  -23.0228 C   0  0  0  0  0  0  0  0  0  0  0  0
    5.9946  -50.4739  -22.3236 N   0  0  0  0  0  0  0  0  0  0  0  0
    5.1418  -51.4942  -22.8333 C   0  0  0  0  0  0  0  0  0  0  0  0
    4.3017  -51.9501  -21.9334 O   0  0  0  0  0  0  0  0  0  0  0  0
    5.0056  -52.1127  -24.1140 C   0  0  0  0  0  0  0  0  0  0  0  0
    6.2836  -52.7229  -24.5844 N   0  0  0  0  0  0  0  0  0  0  0  0
    7.0306  -52.0995  -24.2167 H   0  0  0  0  0  0  0  0  0  0  0  0
    6.3144  -53.6783  -24.1583 H   0  0  0  0  0  0  0  0  0  0  0  0
    3.8354  -52.8324  -24.5928 C   0  0  0  0  0  0  0  0  0  0  0  0
    2.5828  -52.0187  -24.7985 C   0  0  0  0  0  0  0  0  0  0  0  0
    1.9620  -52.3069  -26.1566 C   0  0  0  0  0  0  0  0  0  0  0  0
    1.5225  -53.6942  -26.2422 N   0  0  0  0  0  0  0  0  0  0  0  0
    0.3054  -54.0286  -26.0217 C   0  0  0  0  0  0  0  0  0  0  0  0
   -0.7684  -53.1958  -25.6832 N   0  0  0  0  0  0  0  0  0  0  0  0
   -0.0037  -55.4402  -26.1439 N   0  0  0  0  0  0  0  0  0  0  0  0
   -1.3700  -53.2997  -24.8406 H   0  0  0  0  0  0  0  0  0  0  0  0
   -1.0200  -52.3881  -26.3007 H   0  0  0  0  0  0  0  0  0  0  0  0
    0.1030  -55.8361  -27.0980 H   0  0  0  0  0  0  0  0  0  0  0  0
   -0.3057  -55.9912  -25.3001 H   0  0  0  0  0  0  0  0  0  0  0  0
    3.2746  -48.1645  -23.9838 N   0  0  0  0  0  0  0  0  0  0  0  0
    2.5586  -48.1579  -22.7727 C   0  0  0  0  0  0  0  0  0  0  0  0
    2.1014  -47.0590  -22.3748 O   0  0  0  0  0  0  0  0  0  0  0  0
    3.5892  -49.0860  -24.3248 H   0  0  0  0  0  0  0  0  0  0  0  0
    3.5969  -47.0285  -24.8046 C   0  0  0  0  0  0  0  0  0  0  0  0
    3.4998  -47.3280  -26.2385 C   0  0  0  0  0  0  0  0  0  0  0  0
    3.1969  -48.5217  -26.5385 O   0  0  0  0  0  0  0  0  0  0  0  0
    3.7185  -46.4284  -27.2895 N   0  0  0  0  0  0  0  0  0  0  0  0
    3.9466  -45.4452  -27.1256 H   0  0  0  0  0  0  0  0  0  0  0  0
    3.5781  -46.9686  -28.6726 C   0  0  0  0  0  0  0  0  0  0  0  0
    4.9667  -47.5330  -28.9489 C   0  0  0  0  0  0  0  0  0  0  0  0
    5.2012  -48.9277  -28.9293 N   0  0  0  0  0  0  0  0  0  0  0  0
    5.9496  -46.8013  -29.1974 O   0  0  0  0  0  0  0  0  0  0  0  0
    4.8761  -49.4757  -28.0799 H   0  0  0  0  0  0  0  0  0  0  0  0
    5.6684  -49.4293  -29.6947 H   0  0  0  0  0  0  0  0  0  0  0  0
    3.3191  -45.8036  -29.5251 C   0  0  0  0  0  0  0  0  0  0  0  0
    3.0715  -45.9530  -30.9351 C   0  0  0  0  0  0  0  0  0  0  0  0
    3.9842  -45.4588  -31.8762 C   0  0  0  0  0  0  0  0  0  0  0  0
    3.7590  -45.6246  -33.2323 C   0  0  0  0  0  0  0  0  0  0  0  0
    2.6323  -46.2789  -33.7061 C   0  0  0  0  0  0  0  0  0  0  0  0
    1.7290  -46.7679  -32.7807 C   0  0  0  0  0  0  0  0  0  0  0  0
    1.9745  -46.5924  -31.4431 C   0  0  0  0  0  0  0  0  0  0  0  0
    4.8618  -46.3463  -24.4552 C   0  0  0  0  0  0  0  0  0  0  0  0
    6.0331  -46.8131  -25.3329 C   0  0  0  0  0  0  0  0  0  0  0  0
    4.5209  -44.3975  -22.8995 C   0  0  0  0  0  0  0  0  0  0  0  0
    4.8586  -44.8714  -24.3028 C   0  0  0  0  0  0  0  0  0  0  0  0
    1.0348  -49.4210  -21.1853 C   0  0  0  0  0  0  0  0  0  0  0  0
    0.3821  -50.6706  -20.9301 C   0  0  0  0  0  0  0  0  0  0  0  0
   -0.1832  -51.4444  -21.8930 C   0  0  0  0  0  0  0  0  0  0  0  0
   -0.8011  -52.6532  -21.6049 C   0  0  0  0  0  0  0  0  0  0  0  0
   -0.8678  -53.1257  -20.3168 C   0  0  0  0  0  0  0  0  0  0  0  0
   -1.4748  -54.3212  -20.0018 O   0  0  0  0  0  0  0  0  0  0  0  0
   -0.2937  -52.3497  -19.3194 C   0  0  0  0  0  0  0  0  0  0  0  0
    0.3020  -51.1743  -19.6302 C   0  0  0  0  0  0  0  0  0  0  0  0
   -1.8861  -54.8737  -20.7271 H   0  0  0  0  0  0  0  0  0  0  0  0
 52 53  1  0  0  0
 53 50  1  0  0  0
 50 51  1  0  0  0
 50 32  1  0  0  0
 32 28  1  0  0  0
 28 29  1  0  0  0
 29 30  2  0  0  0
 29  1  1  0  0  0
  1 54  1  0  0  0
 54 55  1  0  0  0
 55 56  2  0  0  0
 56 57  1  0  0  0
 57 58  2  0  0  0
 58 59  1  0  0  0
 58 60  1  0  0  0
 60 61  2  0  0  0
  1  2  1  0  0  0
  2  3  1  0  0  0
  3  4  2  0  0  0
  3  6  1  0  0  0
  6  7  1  0  0  0
  7  8  1  0  0  0
  8  9  1  0  0  0
  9 10  1  0  0  0
 10 11  1  0  0  0
 11 12  2  0  0  0
 11 13  1  0  0  0
 13 14  1  0  0  0
 13 17  1  0  0  0
 17 18  1  0  0  0
 18 19  1  0  0  0
 19 20  1  0  0  0
 20 21  2  0  0  0
 21 22  1  0  0  0
 21 23  1  0  0  0
 32 33  1  0  0  0
 33 34  2  0  0  0
 33 35  1  0  0  0
 35 37  1  0  0  0
 37 43  1  0  0  0
 43 44  1  0  0  0
 44 45  2  0  0  0
 45 46  1  0  0  0
 46 47  2  0  0  0
 47 48  1  0  0  0
 48 49  2  0  0  0
 37 38  1  0  0  0
 38 39  1  0  0  0
 38 40  2  0  0  0
 61 55  1  0  0  0
 10  6  1  0  0  0
 49 44  1  0  0  0
 28 31  1  0  0  0
 59 62  1  0  0  0
  2  5  1  0  0  0
 14 15  1  0  0  0
 14 16  1  0  0  0
 22 24  1  0  0  0
 22 25  1  0  0  0
 23 26  1  0  0  0
 23 27  1  0  0  0
 35 36  1  0  0  0
 39 41  1  0  0  0
 39 42  1  0  0  0
M  END
> <minimizedAffinity>
-8.05371

> <CNNscore>
0.2679889500

> <CNNaffinity>
7.0817580223

> <CNN_VS>
1.8978328705

> <CNNaffinity_variance>
1.0383800268

$$$$
[H]Oc1c([H])c([H])c(C([H])([H])[C@@]([H])(C(=O)N([H])[C@]([H])(C(=O)N([H])[C@]([H])(C(=O)N([H])[H])C([H])([H])c2c([H])c([H])c([H])c([H])c2[H])[C@@]([H])(C([H])([H])[H])C([H])([H])C([H])([H])[H])N([H])C(=O)[C@@]2([H])N(C(=O)[C@@]([H])(N([H])[H])C([H])([H])C([H])([H])C([H])([H])N=C(N([H])[H])N([H])[H])C([H])([H])C([H])([H])C2([H])[H])c([H])c1[H]


 62 64  0  0  0  0  0  0  0  0999 V2000
    3.7391  -48.0623  -21.6246 C   0  0  0  0  0  0  0  0  0  0  0  0
    4.9972  -48.4797  -21.1722 N   0  0  0  0  0  0  0  0  0  0  0  0
    6.1997  -48.8784  -20.7375 C   0  0  0  0  0  0  0  0  0  0  0  0
    6.5966  -48.9414  -19.5297 O   0  0  0  0  0  0  0  0  0  0  0  0
    4.5382  -48.3490  -19.8993 H   0  0  0  0  0  0  0  0  0  0  0  0
    7.3320  -49.3284  -21.6645 C   0  0  0  0  0  0  0  0  0  0  0  0
    7.7308  -48.1089  -22.4630 C   0  0  0  0  0  0  0  0  0  0  0  0
    8.3663  -48.7481  -23.6701 C   0  0  0  0  0  0  0  0  0  0  0  0
    7.6425  -50.0505  -23.8541 C   0  0  0  0  0  0  0  0  0  0  0  0
    6.8112  -50.2168  -22.6984 N   0  0  0  0  0  0  0  0  0  0  0  0
    5.7088  -51.1088  -22.5668 C   0  0  0  0  0  0  0  0  0  0  0  0
    5.1869  -51.0965  -21.3622 O   0  0  0  0  0  0  0  0  0  0  0  0
    5.0521  -52.0000  -23.4698 C   0  0  0  0  0  0  0  0  0  0  0  0
    5.6782  -53.3545  -23.4806 N   0  0  0  0  0  0  0  0  0  0  0  0
    6.6925  -53.1831  -23.3262 H   0  0  0  0  0  0  0  0  0  0  0  0
    5.2359  -53.8769  -22.6888 H   0  0  0  0  0  0  0  0  0  0  0  0
    3.6221  -52.0455  -23.7335 C   0  0  0  0  0  0  0  0  0  0  0  0
    3.2022  -51.9768  -25.1800 C   0  0  0  0  0  0  0  0  0  0  0  0
    2.9524  -50.5390  -25.6079 C   0  0  0  0  0  0  0  0  0  0  0  0
    3.8965  -50.1341  -26.6423 N   0  0  0  0  0  0  0  0  0  0  0  0
    3.8445  -48.9736  -27.1830 C   0  0  0  0  0  0  0  0  0  0  0  0
    2.9434  -47.9367  -26.9108 N   0  0  0  0  0  0  0  0  0  0  0  0
    4.8438  -48.6931  -28.1958 N   0  0  0  0  0  0  0  0  0  0  0  0
    2.3322  -47.4695  -27.6113 H   0  0  0  0  0  0  0  0  0  0  0  0
    2.8436  -47.5723  -25.9340 H   0  0  0  0  0  0  0  0  0  0  0  0
    5.8248  -48.6698  -27.8558 H   0  0  0  0  0  0  0  0  0  0  0  0
    4.5553  -48.5358  -29.1952 H   0  0  0  0  0  0  0  0  0  0  0  0
    2.7192  -50.0046  -20.2639 N   0  0  0  0  0  0  0  0  0  0  0  0
    2.6437  -48.7267  -20.8475 C   0  0  0  0  0  0  0  0  0  0  0  0
    1.5652  -48.0964  -20.7270 O   0  0  0  0  0  0  0  0  0  0  0  0
    3.6327  -50.4808  -20.3206 H   0  0  0  0  0  0  0  0  0  0  0  0
    1.6665  -50.7077  -19.5814 C   0  0  0  0  0  0  0  0  0  0  0  0
    0.6679  -51.2565  -20.5070 C   0  0  0  0  0  0  0  0  0  0  0  0
   -0.1828  -50.4332  -20.9602 O   0  0  0  0  0  0  0  0  0  0  0  0
    0.5663  -52.5908  -20.9203 N   0  0  0  0  0  0  0  0  0  0  0  0
    1.2277  -53.3075  -20.6131 H   0  0  0  0  0  0  0  0  0  0  0  0
   -0.5467  -52.9179  -21.8578 C   0  0  0  0  0  0  0  0  0  0  0  0
   -1.4390  -53.8165  -21.0097 C   0  0  0  0  0  0  0  0  0  0  0  0
   -1.4939  -53.6680  -19.6043 N   0  0  0  0  0  0  0  0  0  0  0  0
   -2.1500  -54.7164  -21.5079 O   0  0  0  0  0  0  0  0  0  0  0  0
   -0.5771  -53.6535  -19.0687 H   0  0  0  0  0  0  0  0  0  0  0  0
   -2.3747  -53.5742  -19.0835 H   0  0  0  0  0  0  0  0  0  0  0  0
    0.0686  -53.6856  -22.9456 C   0  0  0  0  0  0  0  0  0  0  0  0
   -0.1034  -53.2971  -24.3208 C   0  0  0  0  0  0  0  0  0  0  0  0
   -0.4680  -51.9854  -24.6514 C   0  0  0  0  0  0  0  0  0  0  0  0
   -0.6089  -51.6044  -25.9752 C   0  0  0  0  0  0  0  0  0  0  0  0
   -0.3974  -52.4979  -27.0139 C   0  0  0  0  0  0  0  0  0  0  0  0
   -0.0376  -53.7935  -26.6918 C   0  0  0  0  0  0  0  0  0  0  0  0
    0.0968  -54.1466  -25.3737 C   0  0  0  0  0  0  0  0  0  0  0  0
    1.0493  -49.9684  -18.4591 C   0  0  0  0  0  0  0  0  0  0  0  0
    0.0353  -50.8270  -17.6879 C   0  0  0  0  0  0  0  0  0  0  0  0
    2.7207  -50.0909  -16.5814 C   0  0  0  0  0  0  0  0  0  0  0  0
    1.9274  -49.2125  -17.5338 C   0  0  0  0  0  0  0  0  0  0  0  0
    3.5809  -47.9787  -23.0834 C   0  0  0  0  0  0  0  0  0  0  0  0
    3.7200  -46.7367  -23.7840 C   0  0  0  0  0  0  0  0  0  0  0  0
    4.8654  -46.3292  -24.3901 C   0  0  0  0  0  0  0  0  0  0  0  0
    4.9573  -45.1200  -25.0651 C   0  0  0  0  0  0  0  0  0  0  0  0
    3.8797  -44.2726  -25.1510 C   0  0  0  0  0  0  0  0  0  0  0  0
    3.9423  -43.0669  -25.8136 O   0  0  0  0  0  0  0  0  0  0  0  0
    2.6997  -44.6730  -24.5393 C   0  0  0  0  0  0  0  0  0  0  0  0
    2.6396  -45.8581  -23.8875 C   0  0  0  0  0  0  0  0  0  0  0  0
    4.7969  -42.7865  -26.2512 H   0  0  0  0  0  0  0  0  0  0  0  0
 52 53  1  0  0  0
 53 50  1  0  0  0
 50 51  1  0  0  0
 50 32  1  0  0  0
 32 28  1  0  0  0
 28 29  1  0  0  0
 29 30  2  0  0  0
 29  1  1  0  0  0
  1 54  1  0  0  0
 54 55  1  0  0  0
 55 56  2  0  0  0
 56 57  1  0  0  0
 57 58  2  0  0  0
 58 59  1  0  0  0
 58 60  1  0  0  0
 60 61  2  0  0  0
  1  2  1  0  0  0
  2  3  1  0  0  0
  3  4  2  0  0  0
  3  6  1  0  0  0
  6  7  1  0  0  0
  7  8  1  0  0  0
  8  9  1  0  0  0
  9 10  1  0  0  0
 10 11  1  0  0  0
 11 12  2  0  0  0
 11 13  1  0  0  0
 13 14  1  0  0  0
 13 17  1  0  0  0
 17 18  1  0  0  0
 18 19  1  0  0  0
 19 20  1  0  0  0
 20 21  2  0  0  0
 21 22  1  0  0  0
 21 23  1  0  0  0
 32 33  1  0  0  0
 33 34  2  0  0  0
 33 35  1  0  0  0
 35 37  1  0  0  0
 37 43  1  0  0  0
 43 44  1  0  0  0
 44 45  2  0  0  0
 45 46  1  0  0  0
 46 47  2  0  0  0
 47 48  1  0  0  0
 48 49  2  0  0  0
 37 38  1  0  0  0
 38 39  1  0  0  0
 38 40  2  0  0  0
 61 55  1  0  0  0
 10  6  1  0  0  0
 49 44  1  0  0  0
 28 31  1  0  0  0
 59 62  1  0  0  0
  2  5  1  0  0  0
 14 15  1  0  0  0
 14 16  1  0  0  0
 22 24  1  0  0  0
 22 25  1  0  0  0
 23 26  1  0  0  0
 23 27  1  0  0  0
 35 36  1  0  0  0
 39 41  1  0  0  0
 39 42  1  0  0  0
M  END
> <minimizedAffinity>
-7.57193

> <CNNscore>
0.2647177875

> <CNNaffinity>
7.2566576004

> <CNN_VS>
1.9209663868

> <CNNaffinity_variance>
1.0350928307

$$$$
[H]Oc1c([H])c([H])c(C([H])([H])[C@@]([H])(C(=O)N([H])[C@]([H])(C(=O)N([H])[C@]([H])(C(=O)N([H])[H])C([H])([H])c2c([H])c([H])c([H])c([H])c2[H])[C@@]([H])(C([H])([H])[H])C([H])([H])C([H])([H])[H])N([H])C(=O)[C@@]2([H])N(C(=O)[C@@]([H])(N([H])[H])C([H])([H])C([H])([H])C([H])([H])N=C(N([H])[H])N([H])[H])C([H])([H])C([H])([H])C2([H])[H])c([H])c1[H]


 62 64  0  0  0  0  0  0  0  0999 V2000
    2.0971  -50.6479  -25.2708 C   0  0  0  0  0  0  0  0  0  0  0  0
    2.7817  -49.4998  -25.6891 N   0  0  0  0  0  0  0  0  0  0  0  0
    3.4345  -48.4011  -26.0898 C   0  0  0  0  0  0  0  0  0  0  0  0
    2.9279  -47.3524  -26.6034 O   0  0  0  0  0  0  0  0  0  0  0  0
    1.5777  -48.9290  -25.9587 H   0  0  0  0  0  0  0  0  0  0  0  0
    4.9536  -48.2342  -25.9977 C   0  0  0  0  0  0  0  0  0  0  0  0
    5.1926  -46.8215  -25.5171 C   0  0  0  0  0  0  0  0  0  0  0  0
    6.5956  -46.5812  -26.0101 C   0  0  0  0  0  0  0  0  0  0  0  0
    6.7201  -47.4010  -27.2617 C   0  0  0  0  0  0  0  0  0  0  0  0
    5.5375  -48.2075  -27.3349 N   0  0  0  0  0  0  0  0  0  0  0  0
    5.0441  -48.8886  -28.4841 C   0  0  0  0  0  0  0  0  0  0  0  0
    3.9805  -49.6138  -28.2268 O   0  0  0  0  0  0  0  0  0  0  0  0
    5.4579  -48.9379  -29.8507 C   0  0  0  0  0  0  0  0  0  0  0  0
    5.0336  -50.2007  -30.5232 N   0  0  0  0  0  0  0  0  0  0  0  0
    5.0796  -50.9288  -29.7818 H   0  0  0  0  0  0  0  0  0  0  0  0
    4.0560  -50.0295  -30.8554 H   0  0  0  0  0  0  0  0  0  0  0  0
    5.5092  -47.8091  -30.7670 C   0  0  0  0  0  0  0  0  0  0  0  0
    4.2327  -47.4772  -31.4977 C   0  0  0  0  0  0  0  0  0  0  0  0
    3.8418  -46.0236  -31.2803 C   0  0  0  0  0  0  0  0  0  0  0  0
    3.2886  -45.8293  -29.9456 N   0  0  0  0  0  0  0  0  0  0  0  0
    2.0244  -45.8177  -29.7369 C   0  0  0  0  0  0  0  0  0  0  0  0
    0.9959  -45.9798  -30.6735 N   0  0  0  0  0  0  0  0  0  0  0  0
    1.6033  -45.6204  -28.3634 N   0  0  0  0  0  0  0  0  0  0  0  0
    0.2208  -45.3062  -30.8406 H   0  0  0  0  0  0  0  0  0  0  0  0
    0.9675  -46.8348  -31.2778 H   0  0  0  0  0  0  0  0  0  0  0  0
    1.8694  -46.3783  -27.7052 H   0  0  0  0  0  0  0  0  0  0  0  0
    1.0723  -44.7538  -28.0915 H   0  0  0  0  0  0  0  0  0  0  0  0
    2.6837  -50.5072  -22.7608 N   0  0  0  0  0  0  0  0  0  0  0  0
    2.6760  -51.1811  -23.9958 C   0  0  0  0  0  0  0  0  0  0  0  0
    3.2152  -52.3134  -24.0425 O   0  0  0  0  0  0  0  0  0  0  0  0
    2.1825  -49.6061  -22.7276 H   0  0  0  0  0  0  0  0  0  0  0  0
    3.2980  -50.9491  -21.5378 C   0  0  0  0  0  0  0  0  0  0  0  0
    2.3964  -51.7744  -20.7246 C   0  0  0  0  0  0  0  0  0  0  0  0
    2.9071  -52.3066  -19.6936 O   0  0  0  0  0  0  0  0  0  0  0  0
    1.0449  -52.0308  -20.9875 N   0  0  0  0  0  0  0  0  0  0  0  0
    0.5590  -51.6208  -21.7884 H   0  0  0  0  0  0  0  0  0  0  0  0
    0.3323  -52.9180  -20.0233 C   0  0  0  0  0  0  0  0  0  0  0  0
   -0.4786  -53.8220  -20.9440 C   0  0  0  0  0  0  0  0  0  0  0  0
   -0.0815  -54.0383  -22.2842 N   0  0  0  0  0  0  0  0  0  0  0  0
   -1.5195  -54.4025  -20.5657 O   0  0  0  0  0  0  0  0  0  0  0  0
    0.1201  -53.1880  -22.8874 H   0  0  0  0  0  0  0  0  0  0  0  0
    0.0195  -54.9743  -22.6958 H   0  0  0  0  0  0  0  0  0  0  0  0
   -0.5554  -52.0352  -19.2592 C   0  0  0  0  0  0  0  0  0  0  0  0
   -0.2171  -51.6122  -17.9256 C   0  0  0  0  0  0  0  0  0  0  0  0
   -0.7814  -52.2468  -16.8112 C   0  0  0  0  0  0  0  0  0  0  0  0
   -0.4371  -51.8572  -15.5278 C   0  0  0  0  0  0  0  0  0  0  0  0
    0.4697  -50.8338  -15.2989 C   0  0  0  0  0  0  0  0  0  0  0  0
    1.0286  -50.2049  -16.3960 C   0  0  0  0  0  0  0  0  0  0  0  0
    0.6728  -50.6092  -17.6570 C   0  0  0  0  0  0  0  0  0  0  0  0
    3.9524  -49.8830  -20.7489 C   0  0  0  0  0  0  0  0  0  0  0  0
    5.4833  -49.9313  -20.8678 C   0  0  0  0  0  0  0  0  0  0  0  0
    2.1447  -48.2455  -20.1281 C   0  0  0  0  0  0  0  0  0  0  0  0
    3.4474  -48.4941  -20.8692 C   0  0  0  0  0  0  0  0  0  0  0  0
    1.7732  -51.6180  -26.3263 C   0  0  0  0  0  0  0  0  0  0  0  0
    0.4185  -51.8992  -26.6981 C   0  0  0  0  0  0  0  0  0  0  0  0
   -0.6542  -51.6652  -25.8981 C   0  0  0  0  0  0  0  0  0  0  0  0
   -1.9531  -51.9460  -26.2985 C   0  0  0  0  0  0  0  0  0  0  0  0
   -2.2131  -52.4788  -27.5376 C   0  0  0  0  0  0  0  0  0  0  0  0
   -3.4914  -52.7676  -27.9612 O   0  0  0  0  0  0  0  0  0  0  0  0
   -1.1295  -52.7228  -28.3700 C   0  0  0  0  0  0  0  0  0  0  0  0
    0.1266  -52.4392  -27.9523 C   0  0  0  0  0  0  0  0  0  0  0  0
   -4.2661  -52.5886  -27.3544 H   0  0  0  0  0  0  0  0  0  0  0  0
 52 53  1  0  0  0
 53 50  1  0  0  0
 50 51  1  0  0  0
 50 32  1  0  0  0
 32 28  1  0  0  0
 28 29  1  0  0  0
 29 30  2  0  0  0
 29  1  1  0  0  0
  1 54  1  0  0  0
 54 55  1  0  0  0
 55 56  2  0  0  0
 56 57  1  0  0  0
 57 58  2  0  0  0
 58 59  1  0  0  0
 58 60  1  0  0  0
 60 61  2  0  0  0
  1  2  1  0  0  0
  2  3  1  0  0  0
  3  4  2  0  0  0
  3  6  1  0  0  0
  6  7  1  0  0  0
  7  8  1  0  0  0
  8  9  1  0  0  0
  9 10  1  0  0  0
 10 11  1  0  0  0
 11 12  2  0  0  0
 11 13  1  0  0  0
 13 14  1  0  0  0
 13 17  1  0  0  0
 17 18  1  0  0  0
 18 19  1  0  0  0
 19 20  1  0  0  0
 20 21  2  0  0  0
 21 22  1  0  0  0
 21 23  1  0  0  0
 32 33  1  0  0  0
 33 34  2  0  0  0
 33 35  1  0  0  0
 35 37  1  0  0  0
 37 43  1  0  0  0
 43 44  1  0  0  0
 44 45  2  0  0  0
 45 46  1  0  0  0
 46 47  2  0  0  0
 47 48  1  0  0  0
 48 49  2  0  0  0
 37 38  1  0  0  0
 38 39  1  0  0  0
 38 40  2  0  0  0
 61 55  1  0  0  0
 10  6  1  0  0  0
 49 44  1  0  0  0
 28 31  1  0  0  0
 59 62  1  0  0  0
  2  5  1  0  0  0
 14 15  1  0  0  0
 14 16  1  0  0  0
 22 24  1  0  0  0
 22 25  1  0  0  0
 23 26  1  0  0  0
 23 27  1  0  0  0
 35 36  1  0  0  0
 39 41  1  0  0  0
 39 42  1  0  0  0
M  END
> <minimizedAffinity>
-8.51460

> <CNNscore>
0.2553488612

> <CNNaffinity>
7.1705017090

> <CNN_VS>
1.8309794664

> <CNNaffinity_variance>
0.5719491839

$$$$
[H]Oc1c([H])c([H])c(C([H])([H])[C@@]([H])(C(=O)N([H])[C@]([H])(C(=O)N([H])[C@]([H])(C(=O)N([H])[H])C([H])([H])c2c([H])c([H])c([H])c([H])c2[H])[C@@]([H])(C([H])([H])[H])C([H])([H])C([H])([H])[H])N([H])C(=O)[C@@]2([H])N(C(=O)[C@@]([H])(N([H])[H])C([H])([H])C([H])([H])C([H])([H])N=C(N([H])[H])N([H])[H])C([H])([H])C([H])([H])C2([H])[H])c([H])c1[H]


 62 64  0  0  0  0  0  0  0  0999 V2000
    5.2297  -49.3885  -24.8666 C   0  0  0  0  0  0  0  0  0  0  0  0
    5.3050  -48.0369  -25.2268 N   0  0  0  0  0  0  0  0  0  0  0  0
    5.3785  -46.7444  -25.5699 C   0  0  0  0  0  0  0  0  0  0  0  0
    6.2115  -45.8831  -25.1404 O   0  0  0  0  0  0  0  0  0  0  0  0
    6.4247  -47.9372  -24.4625 H   0  0  0  0  0  0  0  0  0  0  0  0
    4.4269  -46.0736  -26.5640 C   0  0  0  0  0  0  0  0  0  0  0  0
    3.0316  -46.3064  -26.0322 C   0  0  0  0  0  0  0  0  0  0  0  0
    2.2142  -46.1590  -27.2890 C   0  0  0  0  0  0  0  0  0  0  0  0
    3.1092  -46.6285  -28.3993 C   0  0  0  0  0  0  0  0  0  0  0  0
    4.4062  -46.8177  -27.8192 N   0  0  0  0  0  0  0  0  0  0  0  0
    5.4865  -47.5581  -28.3784 C   0  0  0  0  0  0  0  0  0  0  0  0
    6.5789  -47.4880  -27.6535 O   0  0  0  0  0  0  0  0  0  0  0  0
    5.6239  -48.3633  -29.5506 C   0  0  0  0  0  0  0  0  0  0  0  0
    4.9264  -49.6758  -29.4181 N   0  0  0  0  0  0  0  0  0  0  0  0
    5.0218  -49.9309  -28.4142 H   0  0  0  0  0  0  0  0  0  0  0  0
    3.9324  -49.4968  -29.6925 H   0  0  0  0  0  0  0  0  0  0  0  0
    5.6398  -47.8769  -30.9216 C   0  0  0  0  0  0  0  0  0  0  0  0
    6.4101  -48.7037  -31.9199 C   0  0  0  0  0  0  0  0  0  0  0  0
    6.6658  -47.9184  -33.1969 C   0  0  0  0  0  0  0  0  0  0  0  0
    5.5307  -47.0606  -33.5144 N   0  0  0  0  0  0  0  0  0  0  0  0
    4.4789  -47.5204  -34.0838 C   0  0  0  0  0  0  0  0  0  0  0  0
    4.2227  -48.8380  -34.4834 N   0  0  0  0  0  0  0  0  0  0  0  0
    3.4192  -46.5646  -34.3407 N   0  0  0  0  0  0  0  0  0  0  0  0
    3.9694  -49.1374  -35.4471 H   0  0  0  0  0  0  0  0  0  0  0  0
    4.2816  -49.6177  -33.7866 H   0  0  0  0  0  0  0  0  0  0  0  0
    2.9790  -46.1531  -33.4948 H   0  0  0  0  0  0  0  0  0  0  0  0
    3.1486  -46.3267  -35.3291 H   0  0  0  0  0  0  0  0  0  0  0  0
    3.7743  -50.8533  -23.3175 N   0  0  0  0  0  0  0  0  0  0  0  0
    4.0584  -49.6376  -23.9660 C   0  0  0  0  0  0  0  0  0  0  0  0
    3.2566  -48.6874  -23.7952 O   0  0  0  0  0  0  0  0  0  0  0  0
    4.4763  -51.6024  -23.4205 H   0  0  0  0  0  0  0  0  0  0  0  0
    2.6217  -51.1558  -22.5123 C   0  0  0  0  0  0  0  0  0  0  0  0
    1.5189  -51.7176  -23.3018 C   0  0  0  0  0  0  0  0  0  0  0  0
    1.0224  -50.9561  -24.1853 O   0  0  0  0  0  0  0  0  0  0  0  0
    0.9676  -52.9975  -23.1616 N   0  0  0  0  0  0  0  0  0  0  0  0
    1.3280  -53.6741  -22.4849 H   0  0  0  0  0  0  0  0  0  0  0  0
   -0.1644  -53.3415  -24.0697 C   0  0  0  0  0  0  0  0  0  0  0  0
   -0.8521  -54.4787  -23.3235 C   0  0  0  0  0  0  0  0  0  0  0  0
   -1.5775  -55.4720  -24.0218 N   0  0  0  0  0  0  0  0  0  0  0  0
   -0.8122  -54.5831  -22.0782 O   0  0  0  0  0  0  0  0  0  0  0  0
   -2.3121  -55.1544  -24.7197 H   0  0  0  0  0  0  0  0  0  0  0  0
   -1.4259  -56.4789  -23.8843 H   0  0  0  0  0  0  0  0  0  0  0  0
    0.4572  -53.8385  -25.3017 C   0  0  0  0  0  0  0  0  0  0  0  0
    0.0090  -53.3916  -26.5944 C   0  0  0  0  0  0  0  0  0  0  0  0
    0.8133  -53.5667  -27.7282 C   0  0  0  0  0  0  0  0  0  0  0  0
    0.3721  -53.1600  -28.9761 C   0  0  0  0  0  0  0  0  0  0  0  0
   -0.8699  -52.5690  -29.1495 C   0  0  0  0  0  0  0  0  0  0  0  0
   -1.6666  -52.3942  -28.0331 C   0  0  0  0  0  0  0  0  0  0  0  0
   -1.2083  -52.8061  -26.8082 C   0  0  0  0  0  0  0  0  0  0  0  0
    2.1781  -50.0604  -21.6233 C   0  0  0  0  0  0  0  0  0  0  0  0
    0.7087  -50.2150  -21.2025 C   0  0  0  0  0  0  0  0  0  0  0  0
    3.7156  -50.8692  -19.8021 C   0  0  0  0  0  0  0  0  0  0  0  0
    3.0315  -49.6881  -20.4692 C   0  0  0  0  0  0  0  0  0  0  0  0
    6.5054  -50.0265  -24.5122 C   0  0  0  0  0  0  0  0  0  0  0  0
    7.2203  -49.6671  -23.3237 C   0  0  0  0  0  0  0  0  0  0  0  0
    7.0042  -50.2299  -22.1064 C   0  0  0  0  0  0  0  0  0  0  0  0
    7.7235  -49.8578  -20.9793 C   0  0  0  0  0  0  0  0  0  0  0  0
    8.6982  -48.8923  -21.0474 C   0  0  0  0  0  0  0  0  0  0  0  0
    9.4270  -48.5031  -19.9456 O   0  0  0  0  0  0  0  0  0  0  0  0
    8.9347  -48.3072  -22.2837 C   0  0  0  0  0  0  0  0  0  0  0  0
    8.2170  -48.6900  -23.3659 C   0  0  0  0  0  0  0  0  0  0  0  0
    9.2495  -48.9302  -19.0587 H   0  0  0  0  0  0  0  0  0  0  0  0
 52 53  1  0  0  0
 53 50  1  0  0  0
 50 51  1  0  0  0
 50 32  1  0  0  0
 32 28  1  0  0  0
 28 29  1  0  0  0
 29 30  2  0  0  0
 29  1  1  0  0  0
  1 54  1  0  0  0
 54 55  1  0  0  0
 55 56  2  0  0  0
 56 57  1  0  0  0
 57 58  2  0  0  0
 58 59  1  0  0  0
 58 60  1  0  0  0
 60 61  2  0  0  0
  1  2  1  0  0  0
  2  3  1  0  0  0
  3  4  2  0  0  0
  3  6  1  0  0  0
  6  7  1  0  0  0
  7  8  1  0  0  0
  8  9  1  0  0  0
  9 10  1  0  0  0
 10 11  1  0  0  0
 11 12  2  0  0  0
 11 13  1  0  0  0
 13 14  1  0  0  0
 13 17  1  0  0  0
 17 18  1  0  0  0
 18 19  1  0  0  0
 19 20  1  0  0  0
 20 21  2  0  0  0
 21 22  1  0  0  0
 21 23  1  0  0  0
 32 33  1  0  0  0
 33 34  2  0  0  0
 33 35  1  0  0  0
 35 37  1  0  0  0
 37 43  1  0  0  0
 43 44  1  0  0  0
 44 45  2  0  0  0
 45 46  1  0  0  0
 46 47  2  0  0  0
 47 48  1  0  0  0
 48 49  2  0  0  0
 37 38  1  0  0  0
 38 39  1  0  0  0
 38 40  2  0  0  0
 61 55  1  0  0  0
 10  6  1  0  0  0
 49 44  1  0  0  0
 28 31  1  0  0  0
 59 62  1  0  0  0
  2  5  1  0  0  0
 14 15  1  0  0  0
 14 16  1  0  0  0
 22 24  1  0  0  0
 22 25  1  0  0  0
 23 26  1  0  0  0
 23 27  1  0  0  0
 35 36  1  0  0  0
 39 41  1  0  0  0
 39 42  1  0  0  0
M  END
> <minimizedAffinity>
-8.06788

> <CNNscore>
0.2402406782

> <CNNaffinity>
7.4101347923

> <CNN_VS>
1.7802158594

> <CNNaffinity_variance>
0.3292135000

$$$$
[H]Oc1c([H])c([H])c(C([H])([H])[C@@]([H])(C(=O)N([H])[C@]([H])(C(=O)N([H])[C@]([H])(C(=O)N([H])[H])C([H])([H])c2c([H])c([H])c([H])c([H])c2[H])[C@@]([H])(C([H])([H])[H])C([H])([H])C([H])([H])[H])N([H])C(=O)[C@@]2([H])N(C(=O)[C@@]([H])(N([H])[H])C([H])([H])C([H])([H])C([H])([H])N=C(N([H])[H])N([H])[H])C([H])([H])C([H])([H])C2([H])[H])c([H])c1[H]


 62 64  0  0  0  0  0  0  0  0999 V2000
    2.6008  -51.3456  -25.8425 C   0  0  0  0  0  0  0  0  0  0  0  0
    2.1949  -52.3131  -26.7704 N   0  0  0  0  0  0  0  0  0  0  0  0
    1.8088  -53.2387  -27.6581 C   0  0  0  0  0  0  0  0  0  0  0  0
    2.5596  -54.0085  -28.3392 O   0  0  0  0  0  0  0  0  0  0  0  0
    3.4977  -52.6799  -26.8972 H   0  0  0  0  0  0  0  0  0  0  0  0
    0.3459  -53.5179  -28.0128 C   0  0  0  0  0  0  0  0  0  0  0  0
   -0.1655  -52.2716  -28.6977 C   0  0  0  0  0  0  0  0  0  0  0  0
   -1.6488  -52.4038  -28.4700 C   0  0  0  0  0  0  0  0  0  0  0  0
   -1.7844  -53.1290  -27.1624 C   0  0  0  0  0  0  0  0  0  0  0  0
   -0.4655  -53.5582  -26.8006 N   0  0  0  0  0  0  0  0  0  0  0  0
   -0.0348  -53.9828  -25.5113 C   0  0  0  0  0  0  0  0  0  0  0  0
    1.2123  -54.3929  -25.5023 O   0  0  0  0  0  0  0  0  0  0  0  0
   -0.6708  -54.0452  -24.2334 C   0  0  0  0  0  0  0  0  0  0  0  0
   -1.5568  -55.2387  -24.1021 N   0  0  0  0  0  0  0  0  0  0  0  0
   -1.9480  -55.3892  -25.0541 H   0  0  0  0  0  0  0  0  0  0  0  0
   -0.9329  -56.0220  -23.7977 H   0  0  0  0  0  0  0  0  0  0  0  0
   -0.0766  -53.6505  -22.9655 C   0  0  0  0  0  0  0  0  0  0  0  0
   -0.8181  -54.0608  -21.7184 C   0  0  0  0  0  0  0  0  0  0  0  0
    0.1302  -54.1849  -20.5359 C   0  0  0  0  0  0  0  0  0  0  0  0
    0.3546  -52.8864  -19.9124 N   0  0  0  0  0  0  0  0  0  0  0  0
   -0.2696  -52.5337  -18.8505 C   0  0  0  0  0  0  0  0  0  0  0  0
   -1.2181  -53.2663  -18.1260 N   0  0  0  0  0  0  0  0  0  0  0  0
    0.0475  -51.2189  -18.3274 N   0  0  0  0  0  0  0  0  0  0  0  0
   -2.1830  -52.9481  -17.9017 H   0  0  0  0  0  0  0  0  0  0  0  0
   -0.9785  -54.2191  -17.7630 H   0  0  0  0  0  0  0  0  0  0  0  0
    1.0224  -51.0997  -17.9898 H   0  0  0  0  0  0  0  0  0  0  0  0
   -0.6846  -50.4635  -18.3138 H   0  0  0  0  0  0  0  0  0  0  0  0
    3.4863  -48.9226  -25.9371 N   0  0  0  0  0  0  0  0  0  0  0  0
    3.2207  -50.1691  -26.5329 C   0  0  0  0  0  0  0  0  0  0  0  0
    3.5062  -50.3045  -27.7474 O   0  0  0  0  0  0  0  0  0  0  0  0
    3.3020  -48.8504  -24.9245 H   0  0  0  0  0  0  0  0  0  0  0  0
    4.0043  -47.7472  -26.5839 C   0  0  0  0  0  0  0  0  0  0  0  0
    5.4714  -47.6978  -26.5645 C   0  0  0  0  0  0  0  0  0  0  0  0
    5.9866  -46.5913  -26.2226 O   0  0  0  0  0  0  0  0  0  0  0  0
    6.3400  -48.7456  -26.8950 N   0  0  0  0  0  0  0  0  0  0  0  0
    5.9987  -49.6721  -27.1607 H   0  0  0  0  0  0  0  0  0  0  0  0
    7.8006  -48.4534  -26.8174 C   0  0  0  0  0  0  0  0  0  0  0  0
    8.2607  -48.6883  -28.2512 C   0  0  0  0  0  0  0  0  0  0  0  0
    9.3131  -49.5885  -28.5384 N   0  0  0  0  0  0  0  0  0  0  0  0
    7.7410  -48.1021  -29.2258 O   0  0  0  0  0  0  0  0  0  0  0  0
   10.2228  -49.4790  -28.0016 H   0  0  0  0  0  0  0  0  0  0  0  0
    9.2364  -50.3374  -29.2377 H   0  0  0  0  0  0  0  0  0  0  0  0
    8.3588  -49.4754  -25.9257 C   0  0  0  0  0  0  0  0  0  0  0  0
    8.2537  -49.3534  -24.4954 C   0  0  0  0  0  0  0  0  0  0  0  0
    7.5087  -50.2791  -23.7531 C   0  0  0  0  0  0  0  0  0  0  0  0
    7.4280  -50.1769  -22.3746 C   0  0  0  0  0  0  0  0  0  0  0  0
    8.0743  -49.1640  -21.6830 C   0  0  0  0  0  0  0  0  0  0  0  0
    8.8104  -48.2483  -22.4118 C   0  0  0  0  0  0  0  0  0  0  0  0
    8.8763  -48.3710  -23.7759 C   0  0  0  0  0  0  0  0  0  0  0  0
    3.3912  -46.4743  -26.1467 C   0  0  0  0  0  0  0  0  0  0  0  0
    2.2912  -46.0007  -27.1090 C   0  0  0  0  0  0  0  0  0  0  0  0
    2.7201  -44.9003  -24.3010 C   0  0  0  0  0  0  0  0  0  0  0  0
    2.9650  -46.3359  -24.7332 C   0  0  0  0  0  0  0  0  0  0  0  0
    3.2724  -51.8571  -24.6395 C   0  0  0  0  0  0  0  0  0  0  0  0
    3.0182  -51.3014  -23.3436 C   0  0  0  0  0  0  0  0  0  0  0  0
    3.8554  -51.4329  -22.2818 C   0  0  0  0  0  0  0  0  0  0  0  0
    3.5753  -50.8731  -21.0431 C   0  0  0  0  0  0  0  0  0  0  0  0
    2.4249  -50.1519  -20.8351 C   0  0  0  0  0  0  0  0  0  0  0  0
    2.1212  -49.5858  -19.6169 O   0  0  0  0  0  0  0  0  0  0  0  0
    1.5580  -50.0051  -21.9092 C   0  0  0  0  0  0  0  0  0  0  0  0
    1.8573  -50.5628  -23.1060 C   0  0  0  0  0  0  0  0  0  0  0  0
    2.7517  -49.6970  -18.8485 H   0  0  0  0  0  0  0  0  0  0  0  0
 52 53  1  0  0  0
 53 50  1  0  0  0
 50 51  1  0  0  0
 50 32  1  0  0  0
 32 28  1  0  0  0
 28 29  1  0  0  0
 29 30  2  0  0  0
 29  1  1  0  0  0
  1 54  1  0  0  0
 54 55  1  0  0  0
 55 56  2  0  0  0
 56 57  1  0  0  0
 57 58  2  0  0  0
 58 59  1  0  0  0
 58 60  1  0  0  0
 60 61  2  0  0  0
  1  2  1  0  0  0
  2  3  1  0  0  0
  3  4  2  0  0  0
  3  6  1  0  0  0
  6  7  1  0  0  0
  7  8  1  0  0  0
  8  9  1  0  0  0
  9 10  1  0  0  0
 10 11  1  0  0  0
 11 12  2  0  0  0
 11 13  1  0  0  0
 13 14  1  0  0  0
 13 17  1  0  0  0
 17 18  1  0  0  0
 18 19  1  0  0  0
 19 20  1  0  0  0
 20 21  2  0  0  0
 21 22  1  0  0  0
 21 23  1  0  0  0
 32 33  1  0  0  0
 33 34  2  0  0  0
 33 35  1  0  0  0
 35 37  1  0  0  0
 37 43  1  0  0  0
 43 44  1  0  0  0
 44 45  2  0  0  0
 45 46  1  0  0  0
 46 47  2  0  0  0
 47 48  1  0  0  0
 48 49  2  0  0  0
 37 38  1  0  0  0
 38 39  1  0  0  0
 38 40  2  0  0  0
 61 55  1  0  0  0
 10  6  1  0  0  0
 49 44  1  0  0  0
 28 31  1  0  0  0
 59 62  1  0  0  0
  2  5  1  0  0  0
 14 15  1  0  0  0
 14 16  1  0  0  0
 22 24  1  0  0  0
 22 25  1  0  0  0
 23 26  1  0  0  0
 23 27  1  0  0  0
 35 36  1  0  0  0
 39 41  1  0  0  0
 39 42  1  0  0  0
M  END
> <minimizedAffinity>
-8.18338

> <CNNscore>
0.2324870527

> <CNNaffinity>
7.6145477295

> <CNN_VS>
1.7702838182

> <CNNaffinity_variance>
0.4390732646

$$$$
[H]OC(=O)[C@@]([H])(N([H])C(=O)[C@@]([H])(C([H])([H])S[H])[C@]1([H])c2c([H])c([H])c([H])c([H])c2C([H])([H])C1([H])[H])C([H])([H])c1c([H])n([H])c2c([H])c([H])c([H])c([H])c12


 33 36  0  0  0  0  0  0  0  0999 V2000
    2.4067  -52.6994  -23.5670 N   0  0  0  0  0  0  0  0  0  0  0  0
    1.7996  -51.6185  -22.8207 C   0  0  0  0  0  0  0  0  0  0  0  0
    2.1955  -50.4997  -23.0962 O   0  0  0  0  0  0  0  0  0  0  0  0
    2.0981  -53.6617  -23.3622 H   0  0  0  0  0  0  0  0  0  0  0  0
    3.4209  -52.4752  -24.5793 C   0  0  0  0  0  0  0  0  0  0  0  0
    5.3888  -52.7821  -23.0348 O   0  0  0  0  0  0  0  0  0  0  0  0
    4.7053  -52.0558  -23.9954 C   0  0  0  0  0  0  0  0  0  0  0  0
    5.2465  -50.9776  -24.3661 O   0  0  0  0  0  0  0  0  0  0  0  0
    4.8554  -53.1912  -22.2772 H   0  0  0  0  0  0  0  0  0  0  0  0
    2.8409  -51.4693  -25.5513 C   0  0  0  0  0  0  0  0  0  0  0  0
    2.1572  -52.0977  -26.7045 C   0  0  0  0  0  0  0  0  0  0  0  0
    2.7145  -52.6989  -27.7915 C   0  0  0  0  0  0  0  0  0  0  0  0
    1.7245  -53.1212  -28.5847 N   0  0  0  0  0  0  0  0  0  0  0  0
    0.5389  -52.8166  -28.0532 C   0  0  0  0  0  0  0  0  0  0  0  0
   -0.7587  -53.0562  -28.5198 C   0  0  0  0  0  0  0  0  0  0  0  0
   -1.8035  -52.6157  -27.7374 C   0  0  0  0  0  0  0  0  0  0  0  0
   -1.5493  -51.9636  -26.5397 C   0  0  0  0  0  0  0  0  0  0  0  0
   -0.2844  -51.7290  -26.0832 C   0  0  0  0  0  0  0  0  0  0  0  0
    0.7856  -52.1700  -26.8657 C   0  0  0  0  0  0  0  0  0  0  0  0
    1.8337  -53.6268  -29.5071 H   0  0  0  0  0  0  0  0  0  0  0  0
    0.7883  -51.9227  -21.8169 C   0  0  0  0  0  0  0  0  0  0  0  0
    1.2000  -52.4809  -20.5309 C   0  0  0  0  0  0  0  0  0  0  0  0
    2.5436  -51.8746  -20.0769 C   0  0  0  0  0  0  0  0  0  0  0  0
    2.1968  -50.8364  -19.0789 C   0  0  0  0  0  0  0  0  0  0  0  0
    0.8954  -51.3304  -18.4839 C   0  0  0  0  0  0  0  0  0  0  0  0
    0.3171  -50.9647  -17.2934 C   0  0  0  0  0  0  0  0  0  0  0  0
   -0.8226  -51.5817  -16.8450 C   0  0  0  0  0  0  0  0  0  0  0  0
   -1.3392  -52.5687  -17.6426 C   0  0  0  0  0  0  0  0  0  0  0  0
   -0.7665  -52.9405  -18.8365 C   0  0  0  0  0  0  0  0  0  0  0  0
    0.3928  -52.3307  -19.3269 C   0  0  0  0  0  0  0  0  0  0  0  0
   -0.4513  -52.5187  -22.4641 C   0  0  0  0  0  0  0  0  0  0  0  0
   -0.5853  -54.2877  -22.3285 S   0  0  0  0  0  0  0  0  0  0  0  0
    0.4105  -54.8840  -21.5515 H   0  0  0  0  0  0  0  0  0  0  0  0
  6  7  1  0  0  0
  7  8  2  0  0  0
  7  5  1  0  0  0
  5 10  1  0  0  0
 10 11  1  0  0  0
 11 12  2  0  0  0
 12 13  1  0  0  0
 13 14  1  0  0  0
 14 15  2  0  0  0
 15 16  1  0  0  0
 16 17  2  0  0  0
 17 18  1  0  0  0
 18 19  2  0  0  0
  5  1  1  0  0  0
  1  2  1  0  0  0
  2  3  2  0  0  0
  2 21  1  0  0  0
 21 31  1  0  0  0
 31 32  1  0  0  0
 21 22  1  0  0  0
 22 23  1  0  0  0
 23 24  1  0  0  0
 24 25  1  0  0  0
 25 26  2  0  0  0
 26 27  1  0  0  0
 27 28  2  0  0  0
 28 29  1  0  0  0
 29 30  2  0  0  0
 19 11  1  0  0  0
 30 22  1  0  0  0
 19 14  1  0  0  0
 30 25  1  0  0  0
  6  9  1  0  0  0
 13 20  1  0  0  0
  1  4  1  0  0  0
 32 33  1  0  0  0
M  END
> <minimizedAffinity>
-8.41174

> <CNNscore>
0.5358849764

> <CNNaffinity>
6.5644011497

> <CNN_VS>
3.5177638531

> <CNNaffinity_variance>
0.2784866095

$$$$
[H]OC(=O)[C@@]([H])(N([H])C(=O)[C@@]([H])(C([H])([H])S[H])[C@]1([H])c2c([H])c([H])c([H])c([H])c2C([H])([H])C1([H])[H])C([H])([H])c1c([H])n([H])c2c([H])c([H])c([H])c([H])c12


 33 36  0  0  0  0  0  0  0  0999 V2000
    0.5971  -51.6753  -19.6527 N   0  0  0  0  0  0  0  0  0  0  0  0
    0.4801  -51.0562  -20.9554 C   0  0  0  0  0  0  0  0  0  0  0  0
    0.4699  -49.8379  -20.9615 O   0  0  0  0  0  0  0  0  0  0  0  0
    0.6090  -52.7053  -19.6060 H   0  0  0  0  0  0  0  0  0  0  0  0
    0.6966  -50.9040  -18.4285 C   0  0  0  0  0  0  0  0  0  0  0  0
    2.4371  -49.2426  -17.6783 O   0  0  0  0  0  0  0  0  0  0  0  0
    2.0818  -50.4995  -18.1379 C   0  0  0  0  0  0  0  0  0  0  0  0
    3.0278  -51.3179  -18.3051 O   0  0  0  0  0  0  0  0  0  0  0  0
    1.9913  -48.4370  -18.1001 H   0  0  0  0  0  0  0  0  0  0  0  0
    0.0715  -51.7485  -17.3381 C   0  0  0  0  0  0  0  0  0  0  0  0
   -0.8849  -50.9978  -16.4930 C   0  0  0  0  0  0  0  0  0  0  0  0
   -0.7044  -49.7984  -15.8747 C   0  0  0  0  0  0  0  0  0  0  0  0
   -1.8275  -49.4996  -15.2137 N   0  0  0  0  0  0  0  0  0  0  0  0
   -2.7362  -50.4629  -15.3790 C   0  0  0  0  0  0  0  0  0  0  0  0
   -4.0393  -50.5827  -14.8827 C   0  0  0  0  0  0  0  0  0  0  0  0
   -4.7475  -51.7118  -15.2312 C   0  0  0  0  0  0  0  0  0  0  0  0
   -4.1663  -52.6749  -16.0429 C   0  0  0  0  0  0  0  0  0  0  0  0
   -2.8955  -52.5597  -16.5278 C   0  0  0  0  0  0  0  0  0  0  0  0
   -2.1648  -51.4200  -16.1831 C   0  0  0  0  0  0  0  0  0  0  0  0
   -2.0010  -48.6322  -14.6341 H   0  0  0  0  0  0  0  0  0  0  0  0
    0.3819  -51.8980  -22.1406 C   0  0  0  0  0  0  0  0  0  0  0  0
    0.8698  -51.3921  -23.4215 C   0  0  0  0  0  0  0  0  0  0  0  0
    2.3945  -51.5911  -23.5427 C   0  0  0  0  0  0  0  0  0  0  0  0
    2.5748  -52.7946  -24.3873 C   0  0  0  0  0  0  0  0  0  0  0  0
    1.3373  -52.8102  -25.2592 C   0  0  0  0  0  0  0  0  0  0  0  0
    1.1464  -53.4761  -26.4449 C   0  0  0  0  0  0  0  0  0  0  0  0
   -0.0054  -53.3078  -27.1698 C   0  0  0  0  0  0  0  0  0  0  0  0
   -0.9371  -52.4489  -26.6489 C   0  0  0  0  0  0  0  0  0  0  0  0
   -0.7539  -51.7786  -25.4620 C   0  0  0  0  0  0  0  0  0  0  0  0
    0.4054  -51.9291  -24.6943 C   0  0  0  0  0  0  0  0  0  0  0  0
   -0.9343  -52.6585  -22.1538 C   0  0  0  0  0  0  0  0  0  0  0  0
   -0.7775  -54.4223  -21.9807 S   0  0  0  0  0  0  0  0  0  0  0  0
    0.5263  -54.8656  -21.7467 H   0  0  0  0  0  0  0  0  0  0  0  0
  6  7  1  0  0  0
  7  8  2  0  0  0
  7  5  1  0  0  0
  5 10  1  0  0  0
 10 11  1  0  0  0
 11 12  2  0  0  0
 12 13  1  0  0  0
 13 14  1  0  0  0
 14 15  2  0  0  0
 15 16  1  0  0  0
 16 17  2  0  0  0
 17 18  1  0  0  0
 18 19  2  0  0  0
  5  1  1  0  0  0
  1  2  1  0  0  0
  2  3  2  0  0  0
  2 21  1  0  0  0
 21 31  1  0  0  0
 31 32  1  0  0  0
 21 22  1  0  0  0
 22 23  1  0  0  0
 23 24  1  0  0  0
 24 25  1  0  0  0
 25 26  2  0  0  0
 26 27  1  0  0  0
 27 28  2  0  0  0
 28 29  1  0  0  0
 29 30  2  0  0  0
 19 11  1  0  0  0
 30 22  1  0  0  0
 19 14  1  0  0  0
 30 25  1  0  0  0
  6  9  1  0  0  0
 13 20  1  0  0  0
  1  4  1  0  0  0
 32 33  1  0  0  0
M  END
> <minimizedAffinity>
-7.90705

> <CNNscore>
0.5151204467

> <CNNaffinity>
6.4716377258

> <CNN_VS>
3.3336730003

> <CNNaffinity_variance>
0.4511094093

$$$$
[H]OC(=O)[C@@]([H])(N([H])C(=O)[C@@]([H])(C([H])([H])S[H])[C@]1([H])c2c([H])c([H])c([H])c([H])c2C([H])([H])C1([H])[H])C([H])([H])c1c([H])n([H])c2c([H])c([H])c([H])c([H])c12


 33 36  0  0  0  0  0  0  0  0999 V2000
    0.0979  -51.0054  -21.5029 N   0  0  0  0  0  0  0  0  0  0  0  0
    1.0784  -51.6861  -22.3210 C   0  0  0  0  0  0  0  0  0  0  0  0
    2.2132  -51.7056  -21.8779 O   0  0  0  0  0  0  0  0  0  0  0  0
   -0.8743  -50.9671  -21.8443 H   0  0  0  0  0  0  0  0  0  0  0  0
    0.4346  -50.3843  -20.2363 C   0  0  0  0  0  0  0  0  0  0  0  0
    2.7309  -49.3751  -19.9897 O   0  0  0  0  0  0  0  0  0  0  0  0
    1.4094  -49.2927  -20.3947 C   0  0  0  0  0  0  0  0  0  0  0  0
    1.0579  -48.2031  -20.9257 O   0  0  0  0  0  0  0  0  0  0  0  0
    2.9291  -49.8015  -19.0926 H   0  0  0  0  0  0  0  0  0  0  0  0
    0.9143  -51.4967  -19.3278 C   0  0  0  0  0  0  0  0  0  0  0  0
   -0.0990  -51.9174  -18.3334 C   0  0  0  0  0  0  0  0  0  0  0  0
   -0.8405  -53.0589  -18.3146 C   0  0  0  0  0  0  0  0  0  0  0  0
   -1.6316  -53.0217  -17.2374 N   0  0  0  0  0  0  0  0  0  0  0  0
   -1.4323  -51.8946  -16.5512 C   0  0  0  0  0  0  0  0  0  0  0  0
   -2.0257  -51.4267  -15.3732 C   0  0  0  0  0  0  0  0  0  0  0  0
   -1.6070  -50.2038  -14.8967 C   0  0  0  0  0  0  0  0  0  0  0  0
   -0.6345  -49.4871  -15.5785 C   0  0  0  0  0  0  0  0  0  0  0  0
   -0.0549  -49.9419  -16.7276 C   0  0  0  0  0  0  0  0  0  0  0  0
   -0.4690  -51.1806  -17.2231 C   0  0  0  0  0  0  0  0  0  0  0  0
   -2.3261  -53.7635  -16.9446 H   0  0  0  0  0  0  0  0  0  0  0  0
    0.6647  -52.2840  -23.5836 C   0  0  0  0  0  0  0  0  0  0  0  0
    0.6289  -51.4597  -24.7894 C   0  0  0  0  0  0  0  0  0  0  0  0
    2.0543  -51.0545  -25.2169 C   0  0  0  0  0  0  0  0  0  0  0  0
    2.4169  -51.9731  -26.3210 C   0  0  0  0  0  0  0  0  0  0  0  0
    1.0841  -52.3296  -26.9441 C   0  0  0  0  0  0  0  0  0  0  0  0
    0.8460  -52.8469  -28.1936 C   0  0  0  0  0  0  0  0  0  0  0  0
   -0.4349  -53.0231  -28.6507 C   0  0  0  0  0  0  0  0  0  0  0  0
   -1.4446  -52.6567  -27.8003 C   0  0  0  0  0  0  0  0  0  0  0  0
   -1.2147  -52.1384  -26.5472 C   0  0  0  0  0  0  0  0  0  0  0  0
    0.0774  -51.9490  -26.0465 C   0  0  0  0  0  0  0  0  0  0  0  0
   -0.4918  -53.2474  -23.3703 C   0  0  0  0  0  0  0  0  0  0  0  0
   -0.3296  -54.3027  -21.9471 S   0  0  0  0  0  0  0  0  0  0  0  0
    0.7868  -54.0323  -21.1523 H   0  0  0  0  0  0  0  0  0  0  0  0
  6  7  1  0  0  0
  7  8  2  0  0  0
  7  5  1  0  0  0
  5 10  1  0  0  0
 10 11  1  0  0  0
 11 12  2  0  0  0
 12 13  1  0  0  0
 13 14  1  0  0  0
 14 15  2  0  0  0
 15 16  1  0  0  0
 16 17  2  0  0  0
 17 18  1  0  0  0
 18 19  2  0  0  0
  5  1  1  0  0  0
  1  2  1  0  0  0
  2  3  2  0  0  0
  2 21  1  0  0  0
 21 31  1  0  0  0
 31 32  1  0  0  0
 21 22  1  0  0  0
 22 23  1  0  0  0
 23 24  1  0  0  0
 24 25  1  0  0  0
 25 26  2  0  0  0
 26 27  1  0  0  0
 27 28  2  0  0  0
 28 29  1  0  0  0
 29 30  2  0  0  0
 19 11  1  0  0  0
 30 22  1  0  0  0
 19 14  1  0  0  0
 30 25  1  0  0  0
  6  9  1  0  0  0
 13 20  1  0  0  0
  1  4  1  0  0  0
 32 33  1  0  0  0
M  END
> <minimizedAffinity>
-8.29829

> <CNNscore>
0.5059874654

> <CNNaffinity>
6.5845518112

> <CNN_VS>
3.3317005634

> <CNNaffinity_variance>
0.2429213971

$$$$
[H]OC(=O)[C@@]([H])(N([H])C(=O)[C@@]([H])(C([H])([H])S[H])[C@]1([H])c2c([H])c([H])c([H])c([H])c2C([H])([H])C1([H])[H])C([H])([H])c1c([H])n([H])c2c([H])c([H])c([H])c([H])c12


 33 36  0  0  0  0  0  0  0  0999 V2000
    2.1721  -52.8731  -23.6510 N   0  0  0  0  0  0  0  0  0  0  0  0
    1.2386  -51.8414  -23.2533 C   0  0  0  0  0  0  0  0  0  0  0  0
    1.3962  -50.7552  -23.7820 O   0  0  0  0  0  0  0  0  0  0  0  0
    2.0716  -53.8068  -23.2250 H   0  0  0  0  0  0  0  0  0  0  0  0
    3.2295  -52.6387  -24.6157 C   0  0  0  0  0  0  0  0  0  0  0  0
    5.6764  -52.0360  -24.6533 O   0  0  0  0  0  0  0  0  0  0  0  0
    4.4836  -52.2136  -23.9729 C   0  0  0  0  0  0  0  0  0  0  0  0
    4.5133  -51.9886  -22.7315 O   0  0  0  0  0  0  0  0  0  0  0  0
    5.9360  -52.7251  -25.3487 H   0  0  0  0  0  0  0  0  0  0  0  0
    2.6875  -51.6327  -25.6092 C   0  0  0  0  0  0  0  0  0  0  0  0
    2.1402  -52.2579  -26.8348 C   0  0  0  0  0  0  0  0  0  0  0  0
    2.8183  -52.8543  -27.8536 C   0  0  0  0  0  0  0  0  0  0  0  0
    1.9255  -53.2750  -28.7554 N   0  0  0  0  0  0  0  0  0  0  0  0
    0.6867  -52.9740  -28.3609 C   0  0  0  0  0  0  0  0  0  0  0  0
   -0.5492  -53.2136  -28.9725 C   0  0  0  0  0  0  0  0  0  0  0  0
   -1.6767  -52.7775  -28.3121 C   0  0  0  0  0  0  0  0  0  0  0  0
   -1.5613  -52.1295  -27.0911 C   0  0  0  0  0  0  0  0  0  0  0  0
   -0.3567  -51.8948  -26.4932 C   0  0  0  0  0  0  0  0  0  0  0  0
    0.7959  -52.3314  -27.1508 C   0  0  0  0  0  0  0  0  0  0  0  0
    2.1395  -53.7771  -29.6613 H   0  0  0  0  0  0  0  0  0  0  0  0
    0.2038  -52.1521  -22.2758 C   0  0  0  0  0  0  0  0  0  0  0  0
    0.1870  -51.4414  -20.9993 C   0  0  0  0  0  0  0  0  0  0  0  0
    0.6425  -52.3667  -19.8525 C   0  0  0  0  0  0  0  0  0  0  0  0
    2.0570  -52.0131  -19.5912 C   0  0  0  0  0  0  0  0  0  0  0  0
    2.1459  -50.5592  -20.0038 C   0  0  0  0  0  0  0  0  0  0  0  0
    3.1005  -49.6371  -19.6517 C   0  0  0  0  0  0  0  0  0  0  0  0
    2.9849  -48.3241  -20.0304 C   0  0  0  0  0  0  0  0  0  0  0  0
    1.8780  -47.9941  -20.7672 C   0  0  0  0  0  0  0  0  0  0  0  0
    0.9178  -48.9117  -21.1245 C   0  0  0  0  0  0  0  0  0  0  0  0
    1.0047  -50.2592  -20.7599 C   0  0  0  0  0  0  0  0  0  0  0  0
   -0.0710  -53.6468  -22.2385 C   0  0  0  0  0  0  0  0  0  0  0  0
   -0.9568  -54.2770  -23.6469 S   0  0  0  0  0  0  0  0  0  0  0  0
   -1.1879  -53.3350  -24.6520 H   0  0  0  0  0  0  0  0  0  0  0  0
  6  7  1  0  0  0
  7  8  2  0  0  0
  7  5  1  0  0  0
  5 10  1  0  0  0
 10 11  1  0  0  0
 11 12  2  0  0  0
 12 13  1  0  0  0
 13 14  1  0  0  0
 14 15  2  0  0  0
 15 16  1  0  0  0
 16 17  2  0  0  0
 17 18  1  0  0  0
 18 19  2  0  0  0
  5  1  1  0  0  0
  1  2  1  0  0  0
  2  3  2  0  0  0
  2 21  1  0  0  0
 21 31  1  0  0  0
 31 32  1  0  0  0
 21 22  1  0  0  0
 22 23  1  0  0  0
 23 24  1  0  0  0
 24 25  1  0  0  0
 25 26  2  0  0  0
 26 27  1  0  0  0
 27 28  2  0  0  0
 28 29  1  0  0  0
 29 30  2  0  0  0
 19 11  1  0  0  0
 30 22  1  0  0  0
 19 14  1  0  0  0
 30 25  1  0  0  0
  6  9  1  0  0  0
 13 20  1  0  0  0
  1  4  1  0  0  0
 32 33  1  0  0  0
M  END
> <minimizedAffinity>
-8.27038

> <CNNscore>
0.4946833849

> <CNNaffinity>
6.5289068222

> <CNN_VS>
3.2297418118

> <CNNaffinity_variance>
0.1917006820

$$$$
[H]OC(=O)[C@@]([H])(N([H])C(=O)[C@@]([H])(C([H])([H])S[H])[C@]1([H])c2c([H])c([H])c([H])c([H])c2C([H])([H])C1([H])[H])C([H])([H])c1c([H])n([H])c2c([H])c([H])c([H])c([H])c12


 33 36  0  0  0  0  0  0  0  0999 V2000
    1.4840  -51.6856  -23.3346 N   0  0  0  0  0  0  0  0  0  0  0  0
    1.7830  -51.5063  -21.9302 C   0  0  0  0  0  0  0  0  0  0  0  0
    2.9335  -51.7367  -21.6022 O   0  0  0  0  0  0  0  0  0  0  0  0
    0.5203  -51.5006  -23.6515 H   0  0  0  0  0  0  0  0  0  0  0  0
    2.4824  -52.1112  -24.2966 C   0  0  0  0  0  0  0  0  0  0  0  0
    3.6120  -51.2060  -26.3598 O   0  0  0  0  0  0  0  0  0  0  0  0
    2.8939  -51.0170  -25.1911 C   0  0  0  0  0  0  0  0  0  0  0  0
    2.5937  -49.8238  -24.9102 O   0  0  0  0  0  0  0  0  0  0  0  0
    4.3832  -51.8624  -26.3449 H   0  0  0  0  0  0  0  0  0  0  0  0
    1.8944  -53.3006  -25.0264 C   0  0  0  0  0  0  0  0  0  0  0  0
    0.5484  -53.0372  -25.5844 C   0  0  0  0  0  0  0  0  0  0  0  0
   -0.6137  -52.8076  -24.9133 C   0  0  0  0  0  0  0  0  0  0  0  0
   -1.5837  -52.6242  -25.8149 N   0  0  0  0  0  0  0  0  0  0  0  0
   -1.0953  -52.7259  -27.0527 C   0  0  0  0  0  0  0  0  0  0  0  0
   -1.7282  -52.6101  -28.2956 C   0  0  0  0  0  0  0  0  0  0  0  0
   -0.9478  -52.7681  -29.4198 C   0  0  0  0  0  0  0  0  0  0  0  0
    0.4085  -53.0308  -29.2942 C   0  0  0  0  0  0  0  0  0  0  0  0
    1.0273  -53.1441  -28.0828 C   0  0  0  0  0  0  0  0  0  0  0  0
    0.2490  -52.9863  -26.9335 C   0  0  0  0  0  0  0  0  0  0  0  0
   -2.6016  -52.4256  -25.6079 H   0  0  0  0  0  0  0  0  0  0  0  0
    0.7258  -51.0786  -21.0233 C   0  0  0  0  0  0  0  0  0  0  0  0
    0.7689  -49.7328  -20.4562 C   0  0  0  0  0  0  0  0  0  0  0  0
    1.0020  -49.7890  -18.9326 C   0  0  0  0  0  0  0  0  0  0  0  0
    2.4418  -49.5004  -18.7375 C   0  0  0  0  0  0  0  0  0  0  0  0
    2.7991  -48.6351  -19.9272 C   0  0  0  0  0  0  0  0  0  0  0  0
    3.8795  -47.7999  -20.0714 C   0  0  0  0  0  0  0  0  0  0  0  0
    4.0099  -47.0017  -21.1789 C   0  0  0  0  0  0  0  0  0  0  0  0
    3.0135  -47.0859  -22.1154 C   0  0  0  0  0  0  0  0  0  0  0  0
    1.9285  -47.9201  -21.9789 C   0  0  0  0  0  0  0  0  0  0  0  0
    1.7648  -48.7509  -20.8657 C   0  0  0  0  0  0  0  0  0  0  0  0
    0.3264  -52.2098  -20.0896 C   0  0  0  0  0  0  0  0  0  0  0  0
   -0.8654  -53.3463  -20.7631 S   0  0  0  0  0  0  0  0  0  0  0  0
   -1.1954  -53.1115  -22.0999 H   0  0  0  0  0  0  0  0  0  0  0  0
  6  7  1  0  0  0
  7  8  2  0  0  0
  7  5  1  0  0  0
  5 10  1  0  0  0
 10 11  1  0  0  0
 11 12  2  0  0  0
 12 13  1  0  0  0
 13 14  1  0  0  0
 14 15  2  0  0  0
 15 16  1  0  0  0
 16 17  2  0  0  0
 17 18  1  0  0  0
 18 19  2  0  0  0
  5  1  1  0  0  0
  1  2  1  0  0  0
  2  3  2  0  0  0
  2 21  1  0  0  0
 21 31  1  0  0  0
 31 32  1  0  0  0
 21 22  1  0  0  0
 22 23  1  0  0  0
 23 24  1  0  0  0
 24 25  1  0  0  0
 25 26  2  0  0  0
 26 27  1  0  0  0
 27 28  2  0  0  0
 28 29  1  0  0  0
 29 30  2  0  0  0
 19 11  1  0  0  0
 30 22  1  0  0  0
 19 14  1  0  0  0
 30 25  1  0  0  0
  6  9  1  0  0  0
 13 20  1  0  0  0
  1  4  1  0  0  0
 32 33  1  0  0  0
M  END
> <minimizedAffinity>
-7.42389

> <CNNscore>
0.4781121910

> <CNNaffinity>
6.3969421387

> <CNN_VS>
3.0584559441

> <CNNaffinity_variance>
0.2230598480

$$$$
[H]OC(=O)[C@@]([H])(N([H])C(=O)[C@@]([H])(C([H])([H])S[H])[C@]1([H])c2c([H])c([H])c([H])c([H])c2C([H])([H])C1([H])[H])C([H])([H])c1c([H])n([H])c2c([H])c([H])c([H])c([H])c12


 33 36  0  0  0  0  0  0  0  0999 V2000
    2.1867  -51.4965  -22.8404 N   0  0  0  0  0  0  0  0  0  0  0  0
    2.1295  -51.7100  -21.4103 C   0  0  0  0  0  0  0  0  0  0  0  0
    3.1865  -51.9978  -20.8772 O   0  0  0  0  0  0  0  0  0  0  0  0
    1.3119  -51.2514  -23.3282 H   0  0  0  0  0  0  0  0  0  0  0  0
    3.4176  -51.6148  -23.5982 C   0  0  0  0  0  0  0  0  0  0  0  0
    4.8192  -50.2334  -25.1729 O   0  0  0  0  0  0  0  0  0  0  0  0
    3.6438  -50.4544  -24.4751 C   0  0  0  0  0  0  0  0  0  0  0  0
    2.7375  -49.5889  -24.6249 O   0  0  0  0  0  0  0  0  0  0  0  0
    5.6962  -50.3999  -24.6945 H   0  0  0  0  0  0  0  0  0  0  0  0
    3.3367  -52.9301  -24.3440 C   0  0  0  0  0  0  0  0  0  0  0  0
    2.6929  -52.8106  -25.6721 C   0  0  0  0  0  0  0  0  0  0  0  0
    3.2856  -52.7667  -26.8969 C   0  0  0  0  0  0  0  0  0  0  0  0
    2.3242  -52.6495  -27.8187 N   0  0  0  0  0  0  0  0  0  0  0  0
    1.1231  -52.6153  -27.2380 C   0  0  0  0  0  0  0  0  0  0  0  0
   -0.1562  -52.5025  -27.7942 C   0  0  0  0  0  0  0  0  0  0  0  0
   -1.2252  -52.4948  -26.9253 C   0  0  0  0  0  0  0  0  0  0  0  0
   -1.0117  -52.5962  -25.5584 C   0  0  0  0  0  0  0  0  0  0  0  0
    0.2354  -52.7062  -25.0142 C   0  0  0  0  0  0  0  0  0  0  0  0
    1.3295  -52.7156  -25.8828 C   0  0  0  0  0  0  0  0  0  0  0  0
    2.4641  -52.5897  -28.8652 H   0  0  0  0  0  0  0  0  0  0  0  0
    0.8545  -51.5756  -20.7180 C   0  0  0  0  0  0  0  0  0  0  0  0
    0.5621  -50.3450  -19.9868 C   0  0  0  0  0  0  0  0  0  0  0  0
    0.3778  -50.6334  -18.4829 C   0  0  0  0  0  0  0  0  0  0  0  0
    1.6586  -50.2534  -17.8430 C   0  0  0  0  0  0  0  0  0  0  0  0
    2.2071  -49.1733  -18.7508 C   0  0  0  0  0  0  0  0  0  0  0  0
    3.1648  -48.2322  -18.4627 C   0  0  0  0  0  0  0  0  0  0  0  0
    3.4836  -47.2520  -19.3672 C   0  0  0  0  0  0  0  0  0  0  0  0
    2.7996  -47.2677  -20.5542 C   0  0  0  0  0  0  0  0  0  0  0  0
    1.8396  -48.2070  -20.8507 C   0  0  0  0  0  0  0  0  0  0  0  0
    1.4918  -49.2231  -19.9548 C   0  0  0  0  0  0  0  0  0  0  0  0
    0.4619  -52.8849  -20.0527 C   0  0  0  0  0  0  0  0  0  0  0  0
   -0.2632  -54.0876  -21.1450 S   0  0  0  0  0  0  0  0  0  0  0  0
   -0.2766  -53.7117  -22.4901 H   0  0  0  0  0  0  0  0  0  0  0  0
  6  7  1  0  0  0
  7  8  2  0  0  0
  7  5  1  0  0  0
  5 10  1  0  0  0
 10 11  1  0  0  0
 11 12  2  0  0  0
 12 13  1  0  0  0
 13 14  1  0  0  0
 14 15  2  0  0  0
 15 16  1  0  0  0
 16 17  2  0  0  0
 17 18  1  0  0  0
 18 19  2  0  0  0
  5  1  1  0  0  0
  1  2  1  0  0  0
  2  3  2  0  0  0
  2 21  1  0  0  0
 21 31  1  0  0  0
 31 32  1  0  0  0
 21 22  1  0  0  0
 22 23  1  0  0  0
 23 24  1  0  0  0
 24 25  1  0  0  0
 25 26  2  0  0  0
 26 27  1  0  0  0
 27 28  2  0  0  0
 28 29  1  0  0  0
 29 30  2  0  0  0
 19 11  1  0  0  0
 30 22  1  0  0  0
 19 14  1  0  0  0
 30 25  1  0  0  0
  6  9  1  0  0  0
 13 20  1  0  0  0
  1  4  1  0  0  0
 32 33  1  0  0  0
M  END
> <minimizedAffinity>
-7.06768

> <CNNscore>
0.4651620686

> <CNNaffinity>
6.4009485245

> <CNN_VS>
2.9774785042

> <CNNaffinity_variance>
0.4131864607

$$$$
[H]OC(=O)[C@@]([H])(N([H])C(=O)[C@@]([H])(C([H])([H])S[H])[C@]1([H])c2c([H])c([H])c([H])c([H])c2C([H])([H])C1([H])[H])C([H])([H])c1c([H])n([H])c2c([H])c([H])c([H])c([H])c12


 33 36  0  0  0  0  0  0  0  0999 V2000
    0.6725  -52.7747  -23.7094 N   0  0  0  0  0  0  0  0  0  0  0  0
    0.5701  -51.6468  -22.8086 C   0  0  0  0  0  0  0  0  0  0  0  0
    1.0578  -50.6051  -23.2102 O   0  0  0  0  0  0  0  0  0  0  0  0
    0.2717  -53.6747  -23.4051 H   0  0  0  0  0  0  0  0  0  0  0  0
    1.3119  -52.6806  -25.0078 C   0  0  0  0  0  0  0  0  0  0  0  0
   -0.3756  -54.3705  -25.8134 O   0  0  0  0  0  0  0  0  0  0  0  0
    0.5357  -53.3574  -26.0595 C   0  0  0  0  0  0  0  0  0  0  0  0
    0.6817  -53.0228  -27.2676 O   0  0  0  0  0  0  0  0  0  0  0  0
   -0.1221  -55.0879  -25.1450 H   0  0  0  0  0  0  0  0  0  0  0  0
    2.7110  -53.2342  -24.8374 C   0  0  0  0  0  0  0  0  0  0  0  0
    3.7157  -52.1951  -24.5160 C   0  0  0  0  0  0  0  0  0  0  0  0
    4.6789  -52.2206  -23.5541 C   0  0  0  0  0  0  0  0  0  0  0  0
    5.3572  -51.0702  -23.6161 N   0  0  0  0  0  0  0  0  0  0  0  0
    4.8704  -50.2934  -24.5859 C   0  0  0  0  0  0  0  0  0  0  0  0
    5.2565  -49.0180  -25.0136 C   0  0  0  0  0  0  0  0  0  0  0  0
    4.5518  -48.4608  -26.0580 C   0  0  0  0  0  0  0  0  0  0  0  0
    3.5058  -49.1595  -26.6429 C   0  0  0  0  0  0  0  0  0  0  0  0
    3.1279  -50.4035  -26.2270 C   0  0  0  0  0  0  0  0  0  0  0  0
    3.8332  -50.9817  -25.1688 C   0  0  0  0  0  0  0  0  0  0  0  0
    6.1679  -50.7873  -22.9988 H   0  0  0  0  0  0  0  0  0  0  0  0
   -0.0848  -51.8195  -21.5186 C   0  0  0  0  0  0  0  0  0  0  0  0
    0.7262  -52.0874  -20.3332 C   0  0  0  0  0  0  0  0  0  0  0  0
    2.0199  -51.2479  -20.3549 C   0  0  0  0  0  0  0  0  0  0  0  0
    1.7682  -50.1021  -19.4504 C   0  0  0  0  0  0  0  0  0  0  0  0
    0.7613  -50.6426  -18.4576 C   0  0  0  0  0  0  0  0  0  0  0  0
    0.4502  -50.1486  -17.2147 C   0  0  0  0  0  0  0  0  0  0  0  0
   -0.4192  -50.8147  -16.3894 C   0  0  0  0  0  0  0  0  0  0  0  0
   -0.9480  -51.9830  -16.8714 C   0  0  0  0  0  0  0  0  0  0  0  0
   -0.6421  -52.4842  -18.1152 C   0  0  0  0  0  0  0  0  0  0  0  0
    0.2364  -51.8302  -18.9849 C   0  0  0  0  0  0  0  0  0  0  0  0
   -1.3718  -52.6143  -21.6697 C   0  0  0  0  0  0  0  0  0  0  0  0
   -1.2103  -54.3594  -21.3632 S   0  0  0  0  0  0  0  0  0  0  0  0
    0.0540  -54.7526  -20.9184 H   0  0  0  0  0  0  0  0  0  0  0  0
  6  7  1  0  0  0
  7  8  2  0  0  0
  7  5  1  0  0  0
  5 10  1  0  0  0
 10 11  1  0  0  0
 11 12  2  0  0  0
 12 13  1  0  0  0
 13 14  1  0  0  0
 14 15  2  0  0  0
 15 16  1  0  0  0
 16 17  2  0  0  0
 17 18  1  0  0  0
 18 19  2  0  0  0
  5  1  1  0  0  0
  1  2  1  0  0  0
  2  3  2  0  0  0
  2 21  1  0  0  0
 21 31  1  0  0  0
 31 32  1  0  0  0
 21 22  1  0  0  0
 22 23  1  0  0  0
 23 24  1  0  0  0
 24 25  1  0  0  0
 25 26  2  0  0  0
 26 27  1  0  0  0
 27 28  2  0  0  0
 28 29  1  0  0  0
 29 30  2  0  0  0
 19 11  1  0  0  0
 30 22  1  0  0  0
 19 14  1  0  0  0
 30 25  1  0  0  0
  6  9  1  0  0  0
 13 20  1  0  0  0
  1  4  1  0  0  0
 32 33  1  0  0  0
M  END
> <minimizedAffinity>
-7.12597

> <CNNscore>
0.4194058478

> <CNNaffinity>
6.4120683670

> <CNN_VS>
2.6892590523

> <CNNaffinity_variance>
0.3873075247

$$$$
[H]OC(=O)[C@@]([H])(N([H])C(=O)[C@@]([H])(C([H])([H])S[H])[C@]1([H])c2c([H])c([H])c([H])c([H])c2C([H])([H])C1([H])[H])C([H])([H])c1c([H])n([H])c2c([H])c([H])c([H])c([H])c12


 33 36  0  0  0  0  0  0  0  0999 V2000
    0.9467  -51.6841  -22.1861 N   0  0  0  0  0  0  0  0  0  0  0  0
    0.0094  -52.6857  -22.6469 C   0  0  0  0  0  0  0  0  0  0  0  0
   -0.6938  -53.1855  -21.7867 O   0  0  0  0  0  0  0  0  0  0  0  0
    1.5601  -51.2379  -22.8846 H   0  0  0  0  0  0  0  0  0  0  0  0
    1.0492  -51.2938  -20.7930 C   0  0  0  0  0  0  0  0  0  0  0  0
    1.0231  -49.1983  -19.3929 O   0  0  0  0  0  0  0  0  0  0  0  0
    1.0449  -49.8316  -20.6241 C   0  0  0  0  0  0  0  0  0  0  0  0
    1.0613  -49.0780  -21.6363 O   0  0  0  0  0  0  0  0  0  0  0  0
    0.4068  -49.5660  -18.6783 H   0  0  0  0  0  0  0  0  0  0  0  0
    2.2957  -51.9618  -20.2517 C   0  0  0  0  0  0  0  0  0  0  0  0
    3.5489  -51.3175  -20.7069 C   0  0  0  0  0  0  0  0  0  0  0  0
    4.3271  -50.4203  -20.0415 C   0  0  0  0  0  0  0  0  0  0  0  0
    5.3580  -50.1004  -20.8303 N   0  0  0  0  0  0  0  0  0  0  0  0
    5.2803  -50.7581  -21.9889 C   0  0  0  0  0  0  0  0  0  0  0  0
    6.1235  -50.7414  -23.1058 C   0  0  0  0  0  0  0  0  0  0  0  0
    5.7766  -51.5416  -24.1722 C   0  0  0  0  0  0  0  0  0  0  0  0
    4.6313  -52.3221  -24.1131 C   0  0  0  0  0  0  0  0  0  0  0  0
    3.8078  -52.3395  -23.0246 C   0  0  0  0  0  0  0  0  0  0  0  0
    4.1465  -51.5333  -21.9351 C   0  0  0  0  0  0  0  0  0  0  0  0
    6.1388  -49.4261  -20.5977 H   0  0  0  0  0  0  0  0  0  0  0  0
   -0.0334  -53.0268  -24.0628 C   0  0  0  0  0  0  0  0  0  0  0  0
   -0.1621  -51.9606  -25.0534 C   0  0  0  0  0  0  0  0  0  0  0  0
    1.2216  -51.5492  -25.5964 C   0  0  0  0  0  0  0  0  0  0  0  0
    1.3537  -52.2254  -26.9078 C   0  0  0  0  0  0  0  0  0  0  0  0
   -0.0761  -52.3671  -27.3845 C   0  0  0  0  0  0  0  0  0  0  0  0
   -0.5230  -52.5886  -28.6639 C   0  0  0  0  0  0  0  0  0  0  0  0
   -1.8640  -52.5932  -28.9507 C   0  0  0  0  0  0  0  0  0  0  0  0
   -2.7156  -52.3660  -27.9018 C   0  0  0  0  0  0  0  0  0  0  0  0
   -2.2762  -52.1440  -26.6175 C   0  0  0  0  0  0  0  0  0  0  0  0
   -0.9171  -52.1365  -26.2875 C   0  0  0  0  0  0  0  0  0  0  0  0
   -0.8573  -54.2841  -24.2895 C   0  0  0  0  0  0  0  0  0  0  0  0
   -0.1307  -55.4591  -25.4106 S   0  0  0  0  0  0  0  0  0  0  0  0
    1.1511  -55.1205  -25.8505 H   0  0  0  0  0  0  0  0  0  0  0  0
  6  7  1  0  0  0
  7  8  2  0  0  0
  7  5  1  0  0  0
  5 10  1  0  0  0
 10 11  1  0  0  0
 11 12  2  0  0  0
 12 13  1  0  0  0
 13 14  1  0  0  0
 14 15  2  0  0  0
 15 16  1  0  0  0
 16 17  2  0  0  0
 17 18  1  0  0  0
 18 19  2  0  0  0
  5  1  1  0  0  0
  1  2  1  0  0  0
  2  3  2  0  0  0
  2 21  1  0  0  0
 21 31  1  0  0  0
 31 32  1  0  0  0
 21 22  1  0  0  0
 22 23  1  0  0  0
 23 24  1  0  0  0
 24 25  1  0  0  0
 25 26  2  0  0  0
 26 27  1  0  0  0
 27 28  2  0  0  0
 28 29  1  0  0  0
 29 30  2  0  0  0
 19 11  1  0  0  0
 30 22  1  0  0  0
 19 14  1  0  0  0
 30 25  1  0  0  0
  6  9  1  0  0  0
 13 20  1  0  0  0
  1  4  1  0  0  0
 32 33  1  0  0  0
M  END
> <minimizedAffinity>
-7.82335

> <CNNscore>
0.4081367254

> <CNNaffinity>
6.4088869095

> <CNN_VS>
2.6157021523

> <CNNaffinity_variance>
0.2215276957

$$$$
[H]OC(=O)[C@@]([H])(N([H])C(=O)[C@@]([H])(C([H])([H])S[H])[C@]1([H])c2c([H])c([H])c([H])c([H])c2C([H])([H])C1([H])[H])C([H])([H])c1c([H])n([H])c2c([H])c([H])c([H])c([H])c12


 33 36  0  0  0  0  0  0  0  0999 V2000
    1.7842  -52.5134  -23.4533 N   0  0  0  0  0  0  0  0  0  0  0  0
    1.1141  -51.5086  -22.6562 C   0  0  0  0  0  0  0  0  0  0  0  0
    1.3440  -50.3521  -22.9631 O   0  0  0  0  0  0  0  0  0  0  0  0
    1.6153  -53.5044  -23.2242 H   0  0  0  0  0  0  0  0  0  0  0  0
    2.6730  -52.1754  -24.5485 C   0  0  0  0  0  0  0  0  0  0  0  0
    1.4454  -53.9494  -25.8516 O   0  0  0  0  0  0  0  0  0  0  0  0
    2.5197  -53.0907  -25.6910 C   0  0  0  0  0  0  0  0  0  0  0  0
    3.3978  -53.1238  -26.5969 O   0  0  0  0  0  0  0  0  0  0  0  0
    1.1136  -54.4552  -25.0393 H   0  0  0  0  0  0  0  0  0  0  0  0
    4.0734  -52.1552  -23.9730 C   0  0  0  0  0  0  0  0  0  0  0  0
    4.6502  -50.7942  -23.8860 C   0  0  0  0  0  0  0  0  0  0  0  0
    4.8535  -49.8975  -24.8899 C   0  0  0  0  0  0  0  0  0  0  0  0
    5.4015  -48.7991  -24.3601 N   0  0  0  0  0  0  0  0  0  0  0  0
    5.5633  -48.9473  -23.0437 C   0  0  0  0  0  0  0  0  0  0  0  0
    6.0905  -48.0741  -22.0854 C   0  0  0  0  0  0  0  0  0  0  0  0
    6.1283  -48.5150  -20.7808 C   0  0  0  0  0  0  0  0  0  0  0  0
    5.6558  -49.7791  -20.4594 C   0  0  0  0  0  0  0  0  0  0  0  0
    5.1414  -50.6320  -21.3929 C   0  0  0  0  0  0  0  0  0  0  0  0
    5.0963  -50.1988  -22.7203 C   0  0  0  0  0  0  0  0  0  0  0  0
    5.6784  -47.9227  -24.8832 H   0  0  0  0  0  0  0  0  0  0  0  0
    0.2374  -51.9258  -21.5699 C   0  0  0  0  0  0  0  0  0  0  0  0
    0.8223  -52.3628  -20.3043 C   0  0  0  0  0  0  0  0  0  0  0  0
    2.1439  -51.6177  -20.0268 C   0  0  0  0  0  0  0  0  0  0  0  0
    1.8050  -50.5497  -19.0580 C   0  0  0  0  0  0  0  0  0  0  0  0
    0.6183  -51.1116  -18.3045 C   0  0  0  0  0  0  0  0  0  0  0  0
    0.1295  -50.7192  -17.0827 C   0  0  0  0  0  0  0  0  0  0  0  0
   -0.9003  -51.3993  -16.4847 C   0  0  0  0  0  0  0  0  0  0  0  0
   -1.4019  -52.4758  -17.1678 C   0  0  0  0  0  0  0  0  0  0  0  0
   -0.9184  -52.8749  -18.3919 C   0  0  0  0  0  0  0  0  0  0  0  0
    0.1273  -52.2031  -19.0334 C   0  0  0  0  0  0  0  0  0  0  0  0
   -0.9363  -52.7311  -22.1036 C   0  0  0  0  0  0  0  0  0  0  0  0
   -0.7792  -54.4930  -21.9128 S   0  0  0  0  0  0  0  0  0  0  0  0
    0.3519  -54.8978  -21.2004 H   0  0  0  0  0  0  0  0  0  0  0  0
  6  7  1  0  0  0
  7  8  2  0  0  0
  7  5  1  0  0  0
  5 10  1  0  0  0
 10 11  1  0  0  0
 11 12  2  0  0  0
 12 13  1  0  0  0
 13 14  1  0  0  0
 14 15  2  0  0  0
 15 16  1  0  0  0
 16 17  2  0  0  0
 17 18  1  0  0  0
 18 19  2  0  0  0
  5  1  1  0  0  0
  1  2  1  0  0  0
  2  3  2  0  0  0
  2 21  1  0  0  0
 21 31  1  0  0  0
 31 32  1  0  0  0
 21 22  1  0  0  0
 22 23  1  0  0  0
 23 24  1  0  0  0
 24 25  1  0  0  0
 25 26  2  0  0  0
 26 27  1  0  0  0
 27 28  2  0  0  0
 28 29  1  0  0  0
 29 30  2  0  0  0
 19 11  1  0  0  0
 30 22  1  0  0  0
 19 14  1  0  0  0
 30 25  1  0  0  0
  6  9  1  0  0  0
 13 20  1  0  0  0
  1  4  1  0  0  0
 32 33  1  0  0  0
M  END
> <minimizedAffinity>
-6.95118

> <CNNscore>
0.4033803046

> <CNNaffinity>
6.2683572769

> <CNN_VS>
2.5285317898

> <CNNaffinity_variance>
0.2912887931

$$$$
[H]OC(=O)C([H])([H])[C@@]([H])(C(=O)N([H])[C@]([H])(C(=O)O[H])C([H])([H])c1c([H])c([H])c([H])c([H])c1[H])N([H])C(=O)[C@@]([H])(N([H])C(=O)[C@@]([H])(N([H])[H])C([H])([H])c1c([H])nc([H])n1[H])C([H])([H])c1c([H])nc([H])n1[H]


 49 51  0  0  0  0  0  0  0  0999 V2000
    1.4751  -50.4813  -21.1394 C   0  0  0  0  0  0  0  0  0  0  0  0
    2.5685  -50.8772  -21.5971 O   0  0  0  0  0  0  0  0  0  0  0  0
    1.2415  -49.1891  -20.7289 N   0  0  0  0  0  0  0  0  0  0  0  0
    0.2037  -49.0322  -20.3783 H   0  0  0  0  0  0  0  0  0  0  0  0
    0.3829  -51.5616  -21.0680 C   0  0  0  0  0  0  0  0  0  0  0  0
   -0.5062  -53.2173  -22.6645 C   0  0  0  0  0  0  0  0  0  0  0  0
   -1.3825  -53.5576  -21.7975 O   0  0  0  0  0  0  0  0  0  0  0  0
    0.4182  -52.2071  -22.3493 N   0  0  0  0  0  0  0  0  0  0  0  0
    1.1268  -51.9245  -23.0378 H   0  0  0  0  0  0  0  0  0  0  0  0
   -1.3623  -55.1551  -23.8989 N   0  0  0  0  0  0  0  0  0  0  0  0
   -0.5829  -53.9625  -23.9420 C   0  0  0  0  0  0  0  0  0  0  0  0
   -0.9801  -55.8873  -23.2942 H   0  0  0  0  0  0  0  0  0  0  0  0
   -2.3755  -55.0117  -23.8897 H   0  0  0  0  0  0  0  0  0  0  0  0
   -0.9334  -53.0043  -25.0325 C   0  0  0  0  0  0  0  0  0  0  0  0
   -0.3223  -53.2960  -26.3391 C   0  0  0  0  0  0  0  0  0  0  0  0
   -0.4635  -52.4800  -27.4435 C   0  0  0  0  0  0  0  0  0  0  0  0
    0.2183  -53.0376  -28.4571 N   0  0  0  0  0  0  0  0  0  0  0  0
    0.7955  -54.1895  -28.0403 C   0  0  0  0  0  0  0  0  0  0  0  0
    0.4442  -54.3162  -26.7416 N   0  0  0  0  0  0  0  0  0  0  0  0
    0.7146  -55.1040  -26.0839 H   0  0  0  0  0  0  0  0  0  0  0  0
    0.7643  -52.3987  -19.9119 C   0  0  0  0  0  0  0  0  0  0  0  0
   -0.1379  -52.4064  -18.7631 C   0  0  0  0  0  0  0  0  0  0  0  0
   -0.1647  -51.5400  -17.6910 C   0  0  0  0  0  0  0  0  0  0  0  0
   -1.1850  -51.8983  -16.8529 N   0  0  0  0  0  0  0  0  0  0  0  0
   -1.7756  -52.9591  -17.3905 C   0  0  0  0  0  0  0  0  0  0  0  0
   -1.1507  -53.2618  -18.5288 N   0  0  0  0  0  0  0  0  0  0  0  0
   -1.4052  -54.0506  -19.1584 H   0  0  0  0  0  0  0  0  0  0  0  0
    2.0406  -48.0138  -20.6621 C   0  0  0  0  0  0  0  0  0  0  0  0
    2.8469  -47.8066  -21.8538 C   0  0  0  0  0  0  0  0  0  0  0  0
    2.3871  -47.0194  -22.7518 O   0  0  0  0  0  0  0  0  0  0  0  0
    4.1057  -48.3883  -22.1447 N   0  0  0  0  0  0  0  0  0  0  0  0
    4.5681  -49.0396  -21.5085 H   0  0  0  0  0  0  0  0  0  0  0  0
    4.8260  -48.0959  -23.3796 C   0  0  0  0  0  0  0  0  0  0  0  0
    5.2910  -46.6774  -23.3925 C   0  0  0  0  0  0  0  0  0  0  0  0
    4.7293  -45.8224  -24.3238 O   0  0  0  0  0  0  0  0  0  0  0  0
    6.1568  -46.2198  -22.6119 O   0  0  0  0  0  0  0  0  0  0  0  0
    5.2933  -45.0603  -24.6861 H   0  0  0  0  0  0  0  0  0  0  0  0
    4.0097  -48.4485  -24.5898 C   0  0  0  0  0  0  0  0  0  0  0  0
    3.8904  -49.9231  -24.6628 C   0  0  0  0  0  0  0  0  0  0  0  0
    2.7086  -50.4905  -25.0417 C   0  0  0  0  0  0  0  0  0  0  0  0
    2.5921  -51.8541  -25.1178 C   0  0  0  0  0  0  0  0  0  0  0  0
    3.6563  -52.6923  -24.8168 C   0  0  0  0  0  0  0  0  0  0  0  0
    4.8401  -52.0946  -24.4365 C   0  0  0  0  0  0  0  0  0  0  0  0
    4.9800  -50.7397  -24.3533 C   0  0  0  0  0  0  0  0  0  0  0  0
    2.7901  -47.7250  -19.3999 C   0  0  0  0  0  0  0  0  0  0  0  0
    3.2127  -49.0228  -18.7576 C   0  0  0  0  0  0  0  0  0  0  0  0
    4.2324  -49.8047  -19.2650 O   0  0  0  0  0  0  0  0  0  0  0  0
    2.6124  -49.4010  -17.7309 O   0  0  0  0  0  0  0  0  0  0  0  0
    4.3292  -50.7827  -19.1345 H   0  0  0  0  0  0  0  0  0  0  0  0
 10 11  1  0  0  0
 11 14  1  0  0  0
 14 15  1  0  0  0
 15 16  2  0  0  0
 16 17  1  0  0  0
 17 18  2  0  0  0
 18 19  1  0  0  0
 11  6  1  0  0  0
  6  7  2  0  0  0
  6  8  1  0  0  0
  8  5  1  0  0  0
  5 21  1  0  0  0
 21 22  1  0  0  0
 22 23  2  0  0  0
 23 24  1  0  0  0
 24 25  2  0  0  0
 25 26  1  0  0  0
  5  1  1  0  0  0
  1  2  2  0  0  0
  1  3  1  0  0  0
  3 28  1  0  0  0
 28 45  1  0  0  0
 45 46  1  0  0  0
 46 47  1  0  0  0
 46 48  2  0  0  0
 28 29  1  0  0  0
 29 30  2  0  0  0
 29 31  1  0  0  0
 31 33  1  0  0  0
 33 38  1  0  0  0
 38 39  1  0  0  0
 39 40  2  0  0  0
 40 41  1  0  0  0
 41 42  2  0  0  0
 42 43  1  0  0  0
 43 44  2  0  0  0
 33 34  1  0  0  0
 34 35  1  0  0  0
 34 36  2  0  0  0
 19 15  1  0  0  0
 26 22  1  0  0  0
 44 39  1  0  0  0
 10 12  1  0  0  0
 10 13  1  0  0  0
 19 20  1  0  0  0
  8  9  1  0  0  0
 26 27  1  0  0  0
  3  4  1  0  0  0
 47 49  1  0  0  0
 31 32  1  0  0  0
 35 37  1  0  0  0
M  END
> <minimizedAffinity>
-6.71219

> <CNNscore>
0.6840389371

> <CNNaffinity>
7.1009497643

> <CNN_VS>
4.8573260307

> <CNNaffinity_variance>
0.3060417175

$$$$
[H]OC(=O)C([H])([H])[C@@]([H])(C(=O)N([H])[C@]([H])(C(=O)O[H])C([H])([H])c1c([H])c([H])c([H])c([H])c1[H])N([H])C(=O)[C@@]([H])(N([H])C(=O)[C@@]([H])(N([H])[H])C([H])([H])c1c([H])nc([H])n1[H])C([H])([H])c1c([H])nc([H])n1[H]


 49 51  0  0  0  0  0  0  0  0999 V2000
    1.1726  -49.9125  -21.2778 C   0  0  0  0  0  0  0  0  0  0  0  0
    0.6858  -48.9525  -20.6428 O   0  0  0  0  0  0  0  0  0  0  0  0
    2.3487  -49.8409  -21.9881 N   0  0  0  0  0  0  0  0  0  0  0  0
    2.6230  -50.8034  -22.4603 H   0  0  0  0  0  0  0  0  0  0  0  0
    0.3498  -51.2097  -21.2061 C   0  0  0  0  0  0  0  0  0  0  0  0
   -0.2331  -52.9556  -22.8471 C   0  0  0  0  0  0  0  0  0  0  0  0
   -1.0918  -53.4209  -22.0216 O   0  0  0  0  0  0  0  0  0  0  0  0
    0.5295  -51.8317  -22.4869 N   0  0  0  0  0  0  0  0  0  0  0  0
    1.2223  -51.4482  -23.1419 H   0  0  0  0  0  0  0  0  0  0  0  0
   -1.0612  -54.7806  -24.2597 N   0  0  0  0  0  0  0  0  0  0  0  0
   -0.1507  -53.6917  -24.1295 C   0  0  0  0  0  0  0  0  0  0  0  0
   -0.8935  -55.5511  -23.6069 H   0  0  0  0  0  0  0  0  0  0  0  0
   -2.0324  -54.5151  -24.4425 H   0  0  0  0  0  0  0  0  0  0  0  0
   -0.1665  -52.7029  -25.2486 C   0  0  0  0  0  0  0  0  0  0  0  0
    1.0348  -52.7039  -26.0985 C   0  0  0  0  0  0  0  0  0  0  0  0
    1.0535  -52.2141  -27.3889 C   0  0  0  0  0  0  0  0  0  0  0  0
    2.2983  -52.3663  -27.8691 N   0  0  0  0  0  0  0  0  0  0  0  0
    3.0841  -52.9399  -26.9272 C   0  0  0  0  0  0  0  0  0  0  0  0
    2.2795  -53.1324  -25.8587 N   0  0  0  0  0  0  0  0  0  0  0  0
    2.5513  -53.5638  -24.9279 H   0  0  0  0  0  0  0  0  0  0  0  0
    0.9080  -51.9395  -20.0492 C   0  0  0  0  0  0  0  0  0  0  0  0
    0.0290  -52.1496  -18.9016 C   0  0  0  0  0  0  0  0  0  0  0  0
   -0.0505  -51.4127  -17.7391 C   0  0  0  0  0  0  0  0  0  0  0  0
   -1.0236  -51.9453  -16.9385 N   0  0  0  0  0  0  0  0  0  0  0  0
   -1.5344  -52.9855  -17.5868 C   0  0  0  0  0  0  0  0  0  0  0  0
   -0.9062  -53.1071  -18.7567 N   0  0  0  0  0  0  0  0  0  0  0  0
   -1.1059  -53.8396  -19.4686 H   0  0  0  0  0  0  0  0  0  0  0  0
    3.2878  -48.8027  -22.2426 C   0  0  0  0  0  0  0  0  0  0  0  0
    3.7147  -48.7508  -23.6312 C   0  0  0  0  0  0  0  0  0  0  0  0
    3.0515  -49.4394  -24.4819 O   0  0  0  0  0  0  0  0  0  0  0  0
    4.8025  -48.0151  -24.1632 N   0  0  0  0  0  0  0  0  0  0  0  0
    5.4096  -47.4368  -23.5803 H   0  0  0  0  0  0  0  0  0  0  0  0
    5.1300  -48.0378  -25.5849 C   0  0  0  0  0  0  0  0  0  0  0  0
    6.3307  -48.8894  -25.8333 C   0  0  0  0  0  0  0  0  0  0  0  0
    6.9418  -48.7985  -27.0711 O   0  0  0  0  0  0  0  0  0  0  0  0
    6.8137  -49.6779  -24.9886 O   0  0  0  0  0  0  0  0  0  0  0  0
    7.4037  -49.6206  -27.4464 H   0  0  0  0  0  0  0  0  0  0  0  0
    5.2807  -46.6495  -26.1375 C   0  0  0  0  0  0  0  0  0  0  0  0
    4.1434  -46.3800  -27.0474 C   0  0  0  0  0  0  0  0  0  0  0  0
    4.3267  -46.4380  -28.3985 C   0  0  0  0  0  0  0  0  0  0  0  0
    3.2778  -46.1961  -29.2471 C   0  0  0  0  0  0  0  0  0  0  0  0
    2.0120  -45.8887  -28.7687 C   0  0  0  0  0  0  0  0  0  0  0  0
    1.8524  -45.8364  -27.3993 C   0  0  0  0  0  0  0  0  0  0  0  0
    2.8813  -46.0731  -26.5348 C   0  0  0  0  0  0  0  0  0  0  0  0
    4.4182  -48.6049  -21.2828 C   0  0  0  0  0  0  0  0  0  0  0  0
    5.1218  -49.9198  -21.0562 C   0  0  0  0  0  0  0  0  0  0  0  0
    4.4853  -51.0180  -20.5109 O   0  0  0  0  0  0  0  0  0  0  0  0
    6.3256  -50.0119  -21.3722 O   0  0  0  0  0  0  0  0  0  0  0  0
    4.9281  -51.7565  -20.0195 H   0  0  0  0  0  0  0  0  0  0  0  0
 10 11  1  0  0  0
 11 14  1  0  0  0
 14 15  1  0  0  0
 15 16  2  0  0  0
 16 17  1  0  0  0
 17 18  2  0  0  0
 18 19  1  0  0  0
 11  6  1  0  0  0
  6  7  2  0  0  0
  6  8  1  0  0  0
  8  5  1  0  0  0
  5 21  1  0  0  0
 21 22  1  0  0  0
 22 23  2  0  0  0
 23 24  1  0  0  0
 24 25  2  0  0  0
 25 26  1  0  0  0
  5  1  1  0  0  0
  1  2  2  0  0  0
  1  3  1  0  0  0
  3 28  1  0  0  0
 28 45  1  0  0  0
 45 46  1  0  0  0
 46 47  1  0  0  0
 46 48  2  0  0  0
 28 29  1  0  0  0
 29 30  2  0  0  0
 29 31  1  0  0  0
 31 33  1  0  0  0
 33 38  1  0  0  0
 38 39  1  0  0  0
 39 40  2  0  0  0
 40 41  1  0  0  0
 41 42  2  0  0  0
 42 43  1  0  0  0
 43 44  2  0  0  0
 33 34  1  0  0  0
 34 35  1  0  0  0
 34 36  2  0  0  0
 19 15  1  0  0  0
 26 22  1  0  0  0
 44 39  1  0  0  0
 10 12  1  0  0  0
 10 13  1  0  0  0
 19 20  1  0  0  0
  8  9  1  0  0  0
 26 27  1  0  0  0
  3  4  1  0  0  0
 47 49  1  0  0  0
 31 32  1  0  0  0
 35 37  1  0  0  0
M  END
> <minimizedAffinity>
-6.69814

> <CNNscore>
0.3200156689

> <CNNaffinity>
6.5883026123

> <CNN_VS>
2.1083600521

> <CNNaffinity_variance>
0.4938762188

$$$$
[H]OC(=O)C([H])([H])[C@@]([H])(C(=O)N([H])[C@]([H])(C(=O)O[H])C([H])([H])c1c([H])c([H])c([H])c([H])c1[H])N([H])C(=O)[C@@]([H])(N([H])C(=O)[C@@]([H])(N([H])[H])C([H])([H])c1c([H])nc([H])n1[H])C([H])([H])c1c([H])nc([H])n1[H]


 49 51  0  0  0  0  0  0  0  0999 V2000
    2.4019  -52.7623  -24.6310 C   0  0  0  0  0  0  0  0  0  0  0  0
    2.9870  -53.2589  -25.6173 O   0  0  0  0  0  0  0  0  0  0  0  0
    3.0548  -52.1928  -23.5623 N   0  0  0  0  0  0  0  0  0  0  0  0
    2.3598  -51.7878  -22.8023 H   0  0  0  0  0  0  0  0  0  0  0  0
    0.8670  -52.8301  -24.6972 C   0  0  0  0  0  0  0  0  0  0  0  0
   -0.4801  -53.4515  -22.7274 C   0  0  0  0  0  0  0  0  0  0  0  0
   -0.9142  -54.4703  -23.3668 O   0  0  0  0  0  0  0  0  0  0  0  0
    0.4285  -52.5815  -23.3534 N   0  0  0  0  0  0  0  0  0  0  0  0
    0.7850  -51.7597  -22.8498 H   0  0  0  0  0  0  0  0  0  0  0  0
   -1.8403  -54.3908  -20.9165 N   0  0  0  0  0  0  0  0  0  0  0  0
   -1.0129  -53.3152  -21.3524 C   0  0  0  0  0  0  0  0  0  0  0  0
   -2.7187  -54.4838  -21.4339 H   0  0  0  0  0  0  0  0  0  0  0  0
   -1.3417  -55.2492  -20.6681 H   0  0  0  0  0  0  0  0  0  0  0  0
    0.1130  -52.9587  -20.4381 C   0  0  0  0  0  0  0  0  0  0  0  0
   -0.2886  -52.5694  -19.0770 C   0  0  0  0  0  0  0  0  0  0  0  0
    0.0766  -51.3751  -18.4889 C   0  0  0  0  0  0  0  0  0  0  0  0
   -0.4572  -51.3425  -17.2572 N   0  0  0  0  0  0  0  0  0  0  0  0
   -1.1562  -52.4802  -17.0322 C   0  0  0  0  0  0  0  0  0  0  0  0
   -1.0316  -53.2067  -18.1648 N   0  0  0  0  0  0  0  0  0  0  0  0
   -1.4488  -54.1638  -18.3551 H   0  0  0  0  0  0  0  0  0  0  0  0
    0.4935  -51.8096  -25.6981 C   0  0  0  0  0  0  0  0  0  0  0  0
   -0.6050  -52.1312  -26.6056 C   0  0  0  0  0  0  0  0  0  0  0  0
   -1.9586  -52.1303  -26.3439 C   0  0  0  0  0  0  0  0  0  0  0  0
   -2.6338  -52.4735  -27.4832 N   0  0  0  0  0  0  0  0  0  0  0  0
   -1.7234  -52.6821  -28.4270 C   0  0  0  0  0  0  0  0  0  0  0  0
   -0.5142  -52.4785  -27.9032 N   0  0  0  0  0  0  0  0  0  0  0  0
    0.3842  -52.5719  -28.4203 H   0  0  0  0  0  0  0  0  0  0  0  0
    4.4249  -52.0081  -23.2256 C   0  0  0  0  0  0  0  0  0  0  0  0
    4.6124  -51.2009  -22.0312 C   0  0  0  0  0  0  0  0  0  0  0  0
    5.8069  -51.0537  -21.5962 O   0  0  0  0  0  0  0  0  0  0  0  0
    3.6074  -50.5479  -21.2755 N   0  0  0  0  0  0  0  0  0  0  0  0
    2.6173  -50.6009  -21.5198 H   0  0  0  0  0  0  0  0  0  0  0  0
    3.9223  -49.7554  -20.0915 C   0  0  0  0  0  0  0  0  0  0  0  0
    3.6595  -50.5407  -18.8493 C   0  0  0  0  0  0  0  0  0  0  0  0
    3.7170  -49.8730  -17.6391 O   0  0  0  0  0  0  0  0  0  0  0  0
    3.3914  -51.7640  -18.8409 O   0  0  0  0  0  0  0  0  0  0  0  0
    4.0141  -50.3855  -16.8150 H   0  0  0  0  0  0  0  0  0  0  0  0
    3.2048  -48.4363  -20.1050 C   0  0  0  0  0  0  0  0  0  0  0  0
    3.5793  -47.7104  -21.3406 C   0  0  0  0  0  0  0  0  0  0  0  0
    4.8854  -47.3875  -21.5686 C   0  0  0  0  0  0  0  0  0  0  0  0
    5.2409  -46.7214  -22.7127 C   0  0  0  0  0  0  0  0  0  0  0  0
    4.2988  -46.3580  -23.6645 C   0  0  0  0  0  0  0  0  0  0  0  0
    2.9854  -46.6959  -23.4110 C   0  0  0  0  0  0  0  0  0  0  0  0
    2.6074  -47.3585  -22.2795 C   0  0  0  0  0  0  0  0  0  0  0  0
    5.3922  -51.6637  -24.3136 C   0  0  0  0  0  0  0  0  0  0  0  0
    5.2043  -50.2221  -24.7162 C   0  0  0  0  0  0  0  0  0  0  0  0
    3.9794  -49.7128  -25.1019 O   0  0  0  0  0  0  0  0  0  0  0  0
    6.1976  -49.4667  -24.7016 O   0  0  0  0  0  0  0  0  0  0  0  0
    3.8407  -48.9289  -25.6928 H   0  0  0  0  0  0  0  0  0  0  0  0
 10 11  1  0  0  0
 11 14  1  0  0  0
 14 15  1  0  0  0
 15 16  2  0  0  0
 16 17  1  0  0  0
 17 18  2  0  0  0
 18 19  1  0  0  0
 11  6  1  0  0  0
  6  7  2  0  0  0
  6  8  1  0  0  0
  8  5  1  0  0  0
  5 21  1  0  0  0
 21 22  1  0  0  0
 22 23  2  0  0  0
 23 24  1  0  0  0
 24 25  2  0  0  0
 25 26  1  0  0  0
  5  1  1  0  0  0
  1  2  2  0  0  0
  1  3  1  0  0  0
  3 28  1  0  0  0
 28 45  1  0  0  0
 45 46  1  0  0  0
 46 47  1  0  0  0
 46 48  2  0  0  0
 28 29  1  0  0  0
 29 30  2  0  0  0
 29 31  1  0  0  0
 31 33  1  0  0  0
 33 38  1  0  0  0
 38 39  1  0  0  0
 39 40  2  0  0  0
 40 41  1  0  0  0
 41 42  2  0  0  0
 42 43  1  0  0  0
 43 44  2  0  0  0
 33 34  1  0  0  0
 34 35  1  0  0  0
 34 36  2  0  0  0
 19 15  1  0  0  0
 26 22  1  0  0  0
 44 39  1  0  0  0
 10 12  1  0  0  0
 10 13  1  0  0  0
 19 20  1  0  0  0
  8  9  1  0  0  0
 26 27  1  0  0  0
  3  4  1  0  0  0
 47 49  1  0  0  0
 31 32  1  0  0  0
 35 37  1  0  0  0
M  END
> <minimizedAffinity>
-7.46233

> <CNNscore>
0.3115734160

> <CNNaffinity>
6.6526489258

> <CNN_VS>
2.0727884769

> <CNNaffinity_variance>
0.3548810780

$$$$
[H]OC(=O)C([H])([H])[C@@]([H])(C(=O)N([H])[C@]([H])(C(=O)O[H])C([H])([H])c1c([H])c([H])c([H])c([H])c1[H])N([H])C(=O)[C@@]([H])(N([H])C(=O)[C@@]([H])(N([H])[H])C([H])([H])c1c([H])nc([H])n1[H])C([H])([H])c1c([H])nc([H])n1[H]


 49 51  0  0  0  0  0  0  0  0999 V2000
    0.9600  -50.4955  -20.9166 C   0  0  0  0  0  0  0  0  0  0  0  0
    0.3605  -49.4052  -20.8001 O   0  0  0  0  0  0  0  0  0  0  0  0
    2.3268  -50.6079  -21.0272 N   0  0  0  0  0  0  0  0  0  0  0  0
    2.6658  -51.6590  -21.0964 H   0  0  0  0  0  0  0  0  0  0  0  0
    0.0446  -51.7311  -20.9248 C   0  0  0  0  0  0  0  0  0  0  0  0
   -0.4344  -53.5027  -22.5719 C   0  0  0  0  0  0  0  0  0  0  0  0
   -1.3616  -53.9395  -21.8071 O   0  0  0  0  0  0  0  0  0  0  0  0
    0.3143  -52.3818  -22.1752 N   0  0  0  0  0  0  0  0  0  0  0  0
    1.0616  -52.0210  -22.7814 H   0  0  0  0  0  0  0  0  0  0  0  0
   -1.4521  -54.8662  -24.3373 N   0  0  0  0  0  0  0  0  0  0  0  0
   -0.2632  -54.2662  -23.8292 C   0  0  0  0  0  0  0  0  0  0  0  0
   -1.8422  -55.6009  -23.7407 H   0  0  0  0  0  0  0  0  0  0  0  0
   -2.1070  -54.2204  -24.7860 H   0  0  0  0  0  0  0  0  0  0  0  0
    0.4966  -53.4226  -24.7995 C   0  0  0  0  0  0  0  0  0  0  0  0
   -0.1263  -53.2825  -26.1253 C   0  0  0  0  0  0  0  0  0  0  0  0
    0.3882  -53.8548  -27.2713 C   0  0  0  0  0  0  0  0  0  0  0  0
   -0.4221  -53.5320  -28.2922 N   0  0  0  0  0  0  0  0  0  0  0  0
   -1.4447  -52.7681  -27.8397 C   0  0  0  0  0  0  0  0  0  0  0  0
   -1.2320  -52.6357  -26.5118 N   0  0  0  0  0  0  0  0  0  0  0  0
   -1.8338  -52.0985  -25.8222 H   0  0  0  0  0  0  0  0  0  0  0  0
    0.4242  -52.4820  -19.7104 C   0  0  0  0  0  0  0  0  0  0  0  0
   -0.0310  -51.9548  -18.4265 C   0  0  0  0  0  0  0  0  0  0  0  0
   -0.9515  -52.4992  -17.5564 C   0  0  0  0  0  0  0  0  0  0  0  0
   -1.0653  -51.6872  -16.4613 N   0  0  0  0  0  0  0  0  0  0  0  0
   -0.2374  -50.6658  -16.6468 C   0  0  0  0  0  0  0  0  0  0  0  0
    0.3785  -50.8255  -17.8186 N   0  0  0  0  0  0  0  0  0  0  0  0
    1.0830  -50.1712  -18.2172 H   0  0  0  0  0  0  0  0  0  0  0  0
    3.3954  -49.6693  -21.0672 C   0  0  0  0  0  0  0  0  0  0  0  0
    4.0352  -49.5922  -22.3703 C   0  0  0  0  0  0  0  0  0  0  0  0
    3.3088  -49.8078  -23.4015 O   0  0  0  0  0  0  0  0  0  0  0  0
    5.3964  -49.3036  -22.6374 N   0  0  0  0  0  0  0  0  0  0  0  0
    6.0739  -49.1237  -21.8949 H   0  0  0  0  0  0  0  0  0  0  0  0
    5.9226  -49.2473  -23.9972 C   0  0  0  0  0  0  0  0  0  0  0  0
    7.1696  -50.0601  -24.1114 C   0  0  0  0  0  0  0  0  0  0  0  0
    7.6709  -50.2987  -25.3785 O   0  0  0  0  0  0  0  0  0  0  0  0
    7.7845  -50.5362  -23.1298 O   0  0  0  0  0  0  0  0  0  0  0  0
    8.1716  -51.1651  -25.5478 H   0  0  0  0  0  0  0  0  0  0  0  0
    6.1115  -47.8299  -24.4562 C   0  0  0  0  0  0  0  0  0  0  0  0
    4.9523  -47.4497  -25.2962 C   0  0  0  0  0  0  0  0  0  0  0  0
    4.6328  -48.1988  -26.3912 C   0  0  0  0  0  0  0  0  0  0  0  0
    3.5577  -47.8571  -27.1699 C   0  0  0  0  0  0  0  0  0  0  0  0
    2.7687  -46.7541  -26.8759 C   0  0  0  0  0  0  0  0  0  0  0  0
    3.1121  -46.0133  -25.7639 C   0  0  0  0  0  0  0  0  0  0  0  0
    4.1776  -46.3335  -24.9738 C   0  0  0  0  0  0  0  0  0  0  0  0
    4.3779  -49.6502  -19.9391 C   0  0  0  0  0  0  0  0  0  0  0  0
    3.6971  -50.1028  -18.6714 C   0  0  0  0  0  0  0  0  0  0  0  0
    3.1917  -49.2140  -17.7423 O   0  0  0  0  0  0  0  0  0  0  0  0
    3.5927  -51.3279  -18.4576 O   0  0  0  0  0  0  0  0  0  0  0  0
    3.0654  -49.3986  -16.7764 H   0  0  0  0  0  0  0  0  0  0  0  0
 10 11  1  0  0  0
 11 14  1  0  0  0
 14 15  1  0  0  0
 15 16  2  0  0  0
 16 17  1  0  0  0
 17 18  2  0  0  0
 18 19  1  0  0  0
 11  6  1  0  0  0
  6  7  2  0  0  0
  6  8  1  0  0  0
  8  5  1  0  0  0
  5 21  1  0  0  0
 21 22  1  0  0  0
 22 23  2  0  0  0
 23 24  1  0  0  0
 24 25  2  0  0  0
 25 26  1  0  0  0
  5  1  1  0  0  0
  1  2  2  0  0  0
  1  3  1  0  0  0
  3 28  1  0  0  0
 28 45  1  0  0  0
 45 46  1  0  0  0
 46 47  1  0  0  0
 46 48  2  0  0  0
 28 29  1  0  0  0
 29 30  2  0  0  0
 29 31  1  0  0  0
 31 33  1  0  0  0
 33 38  1  0  0  0
 38 39  1  0  0  0
 39 40  2  0  0  0
 40 41  1  0  0  0
 41 42  2  0  0  0
 42 43  1  0  0  0
 43 44  2  0  0  0
 33 34  1  0  0  0
 34 35  1  0  0  0
 34 36  2  0  0  0
 19 15  1  0  0  0
 26 22  1  0  0  0
 44 39  1  0  0  0
 10 12  1  0  0  0
 10 13  1  0  0  0
 19 20  1  0  0  0
  8  9  1  0  0  0
 26 27  1  0  0  0
  3  4  1  0  0  0
 47 49  1  0  0  0
 31 32  1  0  0  0
 35 37  1  0  0  0
M  END
> <minimizedAffinity>
-6.60096

> <CNNscore>
0.2830691636

> <CNNaffinity>
6.7994050980

> <CNN_VS>
1.9247019291

> <CNNaffinity_variance>
0.2799894810

$$$$
[H]OC(=O)C([H])([H])[C@@]([H])(C(=O)N([H])[C@]([H])(C(=O)O[H])C([H])([H])c1c([H])c([H])c([H])c([H])c1[H])N([H])C(=O)[C@@]([H])(N([H])C(=O)[C@@]([H])(N([H])[H])C([H])([H])c1c([H])nc([H])n1[H])C([H])([H])c1c([H])nc([H])n1[H]


 49 51  0  0  0  0  0  0  0  0999 V2000
    0.6089  -52.8288  -23.8769 C   0  0  0  0  0  0  0  0  0  0  0  0
   -0.6049  -52.7714  -24.1686 O   0  0  0  0  0  0  0  0  0  0  0  0
    1.0833  -52.8742  -22.5863 N   0  0  0  0  0  0  0  0  0  0  0  0
    2.1864  -52.9473  -22.5378 H   0  0  0  0  0  0  0  0  0  0  0  0
    1.5573  -52.8491  -25.0873 C   0  0  0  0  0  0  0  0  0  0  0  0
    3.8295  -52.1576  -24.4243 C   0  0  0  0  0  0  0  0  0  0  0  0
    3.5625  -50.9687  -24.8121 O   0  0  0  0  0  0  0  0  0  0  0  0
    2.8478  -53.1563  -24.5398 N   0  0  0  0  0  0  0  0  0  0  0  0
    3.0502  -54.1154  -24.2311 H   0  0  0  0  0  0  0  0  0  0  0  0
    6.2457  -52.2171  -24.8368 N   0  0  0  0  0  0  0  0  0  0  0  0
    5.1955  -52.3353  -23.8805 C   0  0  0  0  0  0  0  0  0  0  0  0
    6.2483  -52.9483  -25.5532 H   0  0  0  0  0  0  0  0  0  0  0  0
    6.4579  -51.2608  -25.1329 H   0  0  0  0  0  0  0  0  0  0  0  0
    5.3374  -51.4847  -22.6611 C   0  0  0  0  0  0  0  0  0  0  0  0
    6.4432  -50.5147  -22.7029 C   0  0  0  0  0  0  0  0  0  0  0  0
    7.3087  -50.3027  -21.6485 C   0  0  0  0  0  0  0  0  0  0  0  0
    8.1902  -49.3612  -22.0224 N   0  0  0  0  0  0  0  0  0  0  0  0
    7.9197  -48.9587  -23.2867 C   0  0  0  0  0  0  0  0  0  0  0  0
    6.8464  -49.6841  -23.6713 N   0  0  0  0  0  0  0  0  0  0  0  0
    6.3504  -49.6374  -24.6084 H   0  0  0  0  0  0  0  0  0  0  0  0
    0.9811  -53.8644  -25.9929 C   0  0  0  0  0  0  0  0  0  0  0  0
    0.3325  -53.3855  -27.2110 C   0  0  0  0  0  0  0  0  0  0  0  0
    0.8793  -53.2321  -28.4672 C   0  0  0  0  0  0  0  0  0  0  0  0
   -0.0866  -52.7754  -29.3217 N   0  0  0  0  0  0  0  0  0  0  0  0
   -1.2032  -52.6487  -28.6145 C   0  0  0  0  0  0  0  0  0  0  0  0
   -0.9527  -53.0119  -27.3563 N   0  0  0  0  0  0  0  0  0  0  0  0
   -1.6505  -53.0111  -26.5840 H   0  0  0  0  0  0  0  0  0  0  0  0
    0.4651  -52.8523  -21.3049 C   0  0  0  0  0  0  0  0  0  0  0  0
    1.1685  -52.0126  -20.3492 C   0  0  0  0  0  0  0  0  0  0  0  0
    2.3260  -52.3965  -19.9613 O   0  0  0  0  0  0  0  0  0  0  0  0
    0.7122  -50.7964  -19.7833 N   0  0  0  0  0  0  0  0  0  0  0  0
   -0.1992  -50.3952  -20.0094 H   0  0  0  0  0  0  0  0  0  0  0  0
    1.5171  -50.0353  -18.8335 C   0  0  0  0  0  0  0  0  0  0  0  0
    1.0926  -50.3286  -17.4326 C   0  0  0  0  0  0  0  0  0  0  0  0
    0.0307  -49.6083  -16.9158 O   0  0  0  0  0  0  0  0  0  0  0  0
    1.6411  -51.1854  -16.7022 O   0  0  0  0  0  0  0  0  0  0  0  0
    0.0123  -49.4173  -15.9191 H   0  0  0  0  0  0  0  0  0  0  0  0
    1.4988  -48.5671  -19.1486 C   0  0  0  0  0  0  0  0  0  0  0  0
    2.3570  -48.3299  -20.3324 C   0  0  0  0  0  0  0  0  0  0  0  0
    3.6889  -48.0833  -20.1665 C   0  0  0  0  0  0  0  0  0  0  0  0
    4.4909  -47.8691  -21.2573 C   0  0  0  0  0  0  0  0  0  0  0  0
    3.9836  -47.8953  -22.5487 C   0  0  0  0  0  0  0  0  0  0  0  0
    2.6345  -48.1467  -22.6898 C   0  0  0  0  0  0  0  0  0  0  0  0
    1.8162  -48.3628  -21.6193 C   0  0  0  0  0  0  0  0  0  0  0  0
    0.0018  -54.1436  -20.7082 C   0  0  0  0  0  0  0  0  0  0  0  0
   -1.3843  -54.4616  -21.2113 C   0  0  0  0  0  0  0  0  0  0  0  0
   -1.6068  -55.1863  -22.3662 O   0  0  0  0  0  0  0  0  0  0  0  0
   -2.3634  -54.0487  -20.5567 O   0  0  0  0  0  0  0  0  0  0  0  0
   -2.4188  -55.1344  -22.9326 H   0  0  0  0  0  0  0  0  0  0  0  0
 10 11  1  0  0  0
 11 14  1  0  0  0
 14 15  1  0  0  0
 15 16  2  0  0  0
 16 17  1  0  0  0
 17 18  2  0  0  0
 18 19  1  0  0  0
 11  6  1  0  0  0
  6  7  2  0  0  0
  6  8  1  0  0  0
  8  5  1  0  0  0
  5 21  1  0  0  0
 21 22  1  0  0  0
 22 23  2  0  0  0
 23 24  1  0  0  0
 24 25  2  0  0  0
 25 26  1  0  0  0
  5  1  1  0  0  0
  1  2  2  0  0  0
  1  3  1  0  0  0
  3 28  1  0  0  0
 28 45  1  0  0  0
 45 46  1  0  0  0
 46 47  1  0  0  0
 46 48  2  0  0  0
 28 29  1  0  0  0
 29 30  2  0  0  0
 29 31  1  0  0  0
 31 33  1  0  0  0
 33 38  1  0  0  0
 38 39  1  0  0  0
 39 40  2  0  0  0
 40 41  1  0  0  0
 41 42  2  0  0  0
 42 43  1  0  0  0
 43 44  2  0  0  0
 33 34  1  0  0  0
 34 35  1  0  0  0
 34 36  2  0  0  0
 19 15  1  0  0  0
 26 22  1  0  0  0
 44 39  1  0  0  0
 10 12  1  0  0  0
 10 13  1  0  0  0
 19 20  1  0  0  0
  8  9  1  0  0  0
 26 27  1  0  0  0
  3  4  1  0  0  0
 47 49  1  0  0  0
 31 32  1  0  0  0
 35 37  1  0  0  0
M  END
> <minimizedAffinity>
-7.16808

> <CNNscore>
0.2121893615

> <CNNaffinity>
6.3664774895

> <CNN_VS>
1.3508987427

> <CNNaffinity_variance>
0.9002973437

$$$$
[H]OC(=O)C([H])([H])[C@@]([H])(C(=O)N([H])[C@]([H])(C(=O)O[H])C([H])([H])c1c([H])c([H])c([H])c([H])c1[H])N([H])C(=O)[C@@]([H])(N([H])C(=O)[C@@]([H])(N([H])[H])C([H])([H])c1c([H])nc([H])n1[H])C([H])([H])c1c([H])nc([H])n1[H]


 49 51  0  0  0  0  0  0  0  0999 V2000
    0.1576  -52.2537  -24.1788 C   0  0  0  0  0  0  0  0  0  0  0  0
   -0.9497  -52.0781  -24.7308 O   0  0  0  0  0  0  0  0  0  0  0  0
    0.3593  -52.1533  -22.8215 N   0  0  0  0  0  0  0  0  0  0  0  0
    1.4040  -52.3686  -22.5268 H   0  0  0  0  0  0  0  0  0  0  0  0
    1.3047  -52.6009  -25.1424 C   0  0  0  0  0  0  0  0  0  0  0  0
    3.6590  -52.3528  -24.4521 C   0  0  0  0  0  0  0  0  0  0  0  0
    3.8152  -51.4687  -25.3628 O   0  0  0  0  0  0  0  0  0  0  0  0
    2.4033  -52.9630  -24.2930 N   0  0  0  0  0  0  0  0  0  0  0  0
    2.2652  -53.6744  -23.5644 H   0  0  0  0  0  0  0  0  0  0  0  0
    6.1069  -52.3799  -24.3156 N   0  0  0  0  0  0  0  0  0  0  0  0
    4.8721  -52.6299  -23.6491 C   0  0  0  0  0  0  0  0  0  0  0  0
    6.2858  -52.9923  -25.1162 H   0  0  0  0  0  0  0  0  0  0  0  0
    6.3590  -51.3923  -24.4068 H   0  0  0  0  0  0  0  0  0  0  0  0
    4.7188  -51.9790  -22.3138 C   0  0  0  0  0  0  0  0  0  0  0  0
    5.6569  -50.8773  -22.0458 C   0  0  0  0  0  0  0  0  0  0  0  0
    5.3099  -49.5443  -22.1366 C   0  0  0  0  0  0  0  0  0  0  0  0
    6.3939  -48.8147  -21.8273 N   0  0  0  0  0  0  0  0  0  0  0  0
    7.4308  -49.6368  -21.5396 C   0  0  0  0  0  0  0  0  0  0  0  0
    6.9448  -50.8895  -21.6833 N   0  0  0  0  0  0  0  0  0  0  0  0
    7.4752  -51.7974  -21.5395 H   0  0  0  0  0  0  0  0  0  0  0  0
    0.7614  -53.6806  -25.9920 C   0  0  0  0  0  0  0  0  0  0  0  0
    0.2211  -53.3009  -27.2949 C   0  0  0  0  0  0  0  0  0  0  0  0
    0.8946  -53.1461  -28.4878 C   0  0  0  0  0  0  0  0  0  0  0  0
    0.0001  -52.8025  -29.4643 N   0  0  0  0  0  0  0  0  0  0  0  0
   -1.1970  -52.7455  -28.8925 C   0  0  0  0  0  0  0  0  0  0  0  0
   -1.0646  -53.0421  -27.5993 N   0  0  0  0  0  0  0  0  0  0  0  0
   -1.8444  -53.0730  -26.9106 H   0  0  0  0  0  0  0  0  0  0  0  0
   -0.4820  -51.8385  -21.7181 C   0  0  0  0  0  0  0  0  0  0  0  0
    0.1889  -51.0471  -20.6999 C   0  0  0  0  0  0  0  0  0  0  0  0
    0.4102  -49.8132  -20.9577 O   0  0  0  0  0  0  0  0  0  0  0  0
    0.6385  -51.4913  -19.4318 N   0  0  0  0  0  0  0  0  0  0  0  0
    0.5264  -52.4567  -19.1185 H   0  0  0  0  0  0  0  0  0  0  0  0
    1.2969  -50.5951  -18.4871 C   0  0  0  0  0  0  0  0  0  0  0  0
    2.7114  -50.3488  -18.8961 C   0  0  0  0  0  0  0  0  0  0  0  0
    3.0274  -49.1037  -19.4095 O   0  0  0  0  0  0  0  0  0  0  0  0
    3.6236  -51.2015  -18.8013 O   0  0  0  0  0  0  0  0  0  0  0  0
    3.7694  -49.0364  -20.0987 H   0  0  0  0  0  0  0  0  0  0  0  0
    1.1814  -51.0998  -17.0774 C   0  0  0  0  0  0  0  0  0  0  0  0
    0.0075  -50.4568  -16.4429 C   0  0  0  0  0  0  0  0  0  0  0  0
   -1.0713  -51.2133  -16.0879 C   0  0  0  0  0  0  0  0  0  0  0  0
   -2.1588  -50.6268  -15.4945 C   0  0  0  0  0  0  0  0  0  0  0  0
   -2.1996  -49.2636  -15.2378 C   0  0  0  0  0  0  0  0  0  0  0  0
   -1.0968  -48.5208  -15.6057 C   0  0  0  0  0  0  0  0  0  0  0  0
   -0.0029  -49.0821  -16.1978 C   0  0  0  0  0  0  0  0  0  0  0  0
   -1.3410  -52.9174  -21.1384 C   0  0  0  0  0  0  0  0  0  0  0  0
   -0.5876  -54.2241  -21.1554 C   0  0  0  0  0  0  0  0  0  0  0  0
    0.3232  -54.5686  -20.1755 O   0  0  0  0  0  0  0  0  0  0  0  0
   -0.7968  -55.0186  -22.0949 O   0  0  0  0  0  0  0  0  0  0  0  0
    1.0824  -55.1962  -20.2883 H   0  0  0  0  0  0  0  0  0  0  0  0
 10 11  1  0  0  0
 11 14  1  0  0  0
 14 15  1  0  0  0
 15 16  2  0  0  0
 16 17  1  0  0  0
 17 18  2  0  0  0
 18 19  1  0  0  0
 11  6  1  0  0  0
  6  7  2  0  0  0
  6  8  1  0  0  0
  8  5  1  0  0  0
  5 21  1  0  0  0
 21 22  1  0  0  0
 22 23  2  0  0  0
 23 24  1  0  0  0
 24 25  2  0  0  0
 25 26  1  0  0  0
  5  1  1  0  0  0
  1  2  2  0  0  0
  1  3  1  0  0  0
  3 28  1  0  0  0
 28 45  1  0  0  0
 45 46  1  0  0  0
 46 47  1  0  0  0
 46 48  2  0  0  0
 28 29  1  0  0  0
 29 30  2  0  0  0
 29 31  1  0  0  0
 31 33  1  0  0  0
 33 38  1  0  0  0
 38 39  1  0  0  0
 39 40  2  0  0  0
 40 41  1  0  0  0
 41 42  2  0  0  0
 42 43  1  0  0  0
 43 44  2  0  0  0
 33 34  1  0  0  0
 34 35  1  0  0  0
 34 36  2  0  0  0
 19 15  1  0  0  0
 26 22  1  0  0  0
 44 39  1  0  0  0
 10 12  1  0  0  0
 10 13  1  0  0  0
 19 20  1  0  0  0
  8  9  1  0  0  0
 26 27  1  0  0  0
  3  4  1  0  0  0
 47 49  1  0  0  0
 31 32  1  0  0  0
 35 37  1  0  0  0
M  END
> <minimizedAffinity>
-8.01846

> <CNNscore>
0.1290737987

> <CNNaffinity>
6.0220293999

> <CNN_VS>
0.7772862315

> <CNNaffinity_variance>
0.9579324722

$$$$
[H]OC(=O)C([H])([H])[C@@]([H])(C(=O)N([H])[C@]([H])(C(=O)O[H])C([H])([H])c1c([H])c([H])c([H])c([H])c1[H])N([H])C(=O)[C@@]([H])(N([H])C(=O)[C@@]([H])(N([H])[H])C([H])([H])c1c([H])nc([H])n1[H])C([H])([H])c1c([H])nc([H])n1[H]


 49 51  0  0  0  0  0  0  0  0999 V2000
    3.1964  -46.9422  -24.1896 C   0  0  0  0  0  0  0  0  0  0  0  0
    2.2814  -46.1035  -24.0447 O   0  0  0  0  0  0  0  0  0  0  0  0
    3.8146  -47.5869  -23.1432 N   0  0  0  0  0  0  0  0  0  0  0  0
    4.5821  -48.3100  -23.4791 H   0  0  0  0  0  0  0  0  0  0  0  0
    3.5906  -47.2126  -25.6512 C   0  0  0  0  0  0  0  0  0  0  0  0
    3.6193  -49.6696  -25.8598 C   0  0  0  0  0  0  0  0  0  0  0  0
    4.8276  -49.6740  -25.4410 O   0  0  0  0  0  0  0  0  0  0  0  0
    2.9391  -48.4466  -25.9867 N   0  0  0  0  0  0  0  0  0  0  0  0
    1.9678  -48.4300  -26.3217 H   0  0  0  0  0  0  0  0  0  0  0  0
    3.8851  -52.1048  -25.7585 N   0  0  0  0  0  0  0  0  0  0  0  0
    3.0704  -51.0097  -26.1689 C   0  0  0  0  0  0  0  0  0  0  0  0
    4.7828  -52.1690  -26.2464 H   0  0  0  0  0  0  0  0  0  0  0  0
    3.8746  -52.3016  -24.7544 H   0  0  0  0  0  0  0  0  0  0  0  0
    1.6490  -51.0594  -25.7131 C   0  0  0  0  0  0  0  0  0  0  0  0
    0.8921  -52.2399  -26.1592 C   0  0  0  0  0  0  0  0  0  0  0  0
   -0.4440  -52.2005  -26.5040 C   0  0  0  0  0  0  0  0  0  0  0  0
   -0.8133  -53.4408  -26.8625 N   0  0  0  0  0  0  0  0  0  0  0  0
    0.2443  -54.2800  -26.7594 C   0  0  0  0  0  0  0  0  0  0  0  0
    1.2692  -53.5127  -26.3270 N   0  0  0  0  0  0  0  0  0  0  0  0
    2.2624  -53.8307  -26.1304 H   0  0  0  0  0  0  0  0  0  0  0  0
    3.1293  -46.0174  -26.3870 C   0  0  0  0  0  0  0  0  0  0  0  0
    3.0205  -46.1248  -27.8397 C   0  0  0  0  0  0  0  0  0  0  0  0
    3.8971  -46.7212  -28.7210 C   0  0  0  0  0  0  0  0  0  0  0  0
    3.3979  -46.6115  -29.9900 N   0  0  0  0  0  0  0  0  0  0  0  0
    2.2422  -45.9640  -29.8987 C   0  0  0  0  0  0  0  0  0  0  0  0
    2.0180  -45.6738  -28.6168 N   0  0  0  0  0  0  0  0  0  0  0  0
    1.1829  -45.1679  -28.2560 H   0  0  0  0  0  0  0  0  0  0  0  0
    3.6785  -47.5293  -21.7280 C   0  0  0  0  0  0  0  0  0  0  0  0
    2.6703  -48.4434  -21.2167 C   0  0  0  0  0  0  0  0  0  0  0  0
    1.5048  -48.3958  -21.7431 O   0  0  0  0  0  0  0  0  0  0  0  0
    2.8292  -49.3973  -20.1812 N   0  0  0  0  0  0  0  0  0  0  0  0
    3.7106  -49.5203  -19.6806 H   0  0  0  0  0  0  0  0  0  0  0  0
    1.7378  -50.2686  -19.7583 C   0  0  0  0  0  0  0  0  0  0  0  0
    1.2381  -49.8669  -18.4101 C   0  0  0  0  0  0  0  0  0  0  0  0
    0.1458  -50.5443  -17.8983 O   0  0  0  0  0  0  0  0  0  0  0  0
    1.7491  -48.9556  -17.7195 O   0  0  0  0  0  0  0  0  0  0  0  0
   -0.4891  -50.0472  -17.2819 H   0  0  0  0  0  0  0  0  0  0  0  0
    2.1328  -51.7161  -19.8215 C   0  0  0  0  0  0  0  0  0  0  0  0
    1.1302  -52.4416  -20.6354 C   0  0  0  0  0  0  0  0  0  0  0  0
    0.9013  -52.0626  -21.9262 C   0  0  0  0  0  0  0  0  0  0  0  0
   -0.0204  -52.7330  -22.6879 C   0  0  0  0  0  0  0  0  0  0  0  0
   -0.7416  -53.8043  -22.1802 C   0  0  0  0  0  0  0  0  0  0  0  0
   -0.4919  -54.1681  -20.8730 C   0  0  0  0  0  0  0  0  0  0  0  0
    0.4204  -53.5160  -20.0954 C   0  0  0  0  0  0  0  0  0  0  0  0
    3.6335  -46.1894  -21.0642 C   0  0  0  0  0  0  0  0  0  0  0  0
    4.5109  -45.2234  -21.8208 C   0  0  0  0  0  0  0  0  0  0  0  0
    4.0218  -44.0597  -22.3822 O   0  0  0  0  0  0  0  0  0  0  0  0
    5.7233  -45.4928  -21.9438 O   0  0  0  0  0  0  0  0  0  0  0  0
    4.4174  -43.5815  -23.1553 H   0  0  0  0  0  0  0  0  0  0  0  0
 10 11  1  0  0  0
 11 14  1  0  0  0
 14 15  1  0  0  0
 15 16  2  0  0  0
 16 17  1  0  0  0
 17 18  2  0  0  0
 18 19  1  0  0  0
 11  6  1  0  0  0
  6  7  2  0  0  0
  6  8  1  0  0  0
  8  5  1  0  0  0
  5 21  1  0  0  0
 21 22  1  0  0  0
 22 23  2  0  0  0
 23 24  1  0  0  0
 24 25  2  0  0  0
 25 26  1  0  0  0
  5  1  1  0  0  0
  1  2  2  0  0  0
  1  3  1  0  0  0
  3 28  1  0  0  0
 28 45  1  0  0  0
 45 46  1  0  0  0
 46 47  1  0  0  0
 46 48  2  0  0  0
 28 29  1  0  0  0
 29 30  2  0  0  0
 29 31  1  0  0  0
 31 33  1  0  0  0
 33 38  1  0  0  0
 38 39  1  0  0  0
 39 40  2  0  0  0
 40 41  1  0  0  0
 41 42  2  0  0  0
 42 43  1  0  0  0
 43 44  2  0  0  0
 33 34  1  0  0  0
 34 35  1  0  0  0
 34 36  2  0  0  0
 19 15  1  0  0  0
 26 22  1  0  0  0
 44 39  1  0  0  0
 10 12  1  0  0  0
 10 13  1  0  0  0
 19 20  1  0  0  0
  8  9  1  0  0  0
 26 27  1  0  0  0
  3  4  1  0  0  0
 47 49  1  0  0  0
 31 32  1  0  0  0
 35 37  1  0  0  0
M  END
> <minimizedAffinity>
-6.71301

> <CNNscore>
0.0974432603

> <CNNaffinity>
5.8937168121

> <CNN_VS>
0.5743029714

> <CNNaffinity_variance>
0.7475990057

$$$$
[H]OC(=O)C([H])([H])[C@@]([H])(C(=O)N([H])[C@]([H])(C(=O)O[H])C([H])([H])c1c([H])c([H])c([H])c([H])c1[H])N([H])C(=O)[C@@]([H])(N([H])C(=O)[C@@]([H])(N([H])[H])C([H])([H])c1c([H])nc([H])n1[H])C([H])([H])c1c([H])nc([H])n1[H]


 49 51  0  0  0  0  0  0  0  0999 V2000
    1.5681  -51.7199  -22.8215 C   0  0  0  0  0  0  0  0  0  0  0  0
    1.1329  -50.6120  -22.4406 O   0  0  0  0  0  0  0  0  0  0  0  0
    0.9892  -52.9231  -22.4901 N   0  0  0  0  0  0  0  0  0  0  0  0
    1.5083  -53.7879  -22.9454 H   0  0  0  0  0  0  0  0  0  0  0  0
    2.8216  -51.6438  -23.7090 C   0  0  0  0  0  0  0  0  0  0  0  0
    2.6388  -52.3385  -26.0680 C   0  0  0  0  0  0  0  0  0  0  0  0
    3.3804  -53.3480  -25.8105 O   0  0  0  0  0  0  0  0  0  0  0  0
    2.3207  -51.4372  -25.0380 N   0  0  0  0  0  0  0  0  0  0  0  0
    1.7253  -50.6226  -25.2323 H   0  0  0  0  0  0  0  0  0  0  0  0
    3.2393  -52.1129  -28.4344 N   0  0  0  0  0  0  0  0  0  0  0  0
    2.1921  -52.2467  -27.4769 C   0  0  0  0  0  0  0  0  0  0  0  0
    3.7671  -51.2387  -28.3631 H   0  0  0  0  0  0  0  0  0  0  0  0
    3.7636  -52.9703  -28.6274 H   0  0  0  0  0  0  0  0  0  0  0  0
    1.2166  -53.3465  -27.7403 C   0  0  0  0  0  0  0  0  0  0  0  0
   -0.1978  -52.9403  -27.7334 C   0  0  0  0  0  0  0  0  0  0  0  0
   -1.0012  -52.9646  -28.8557 C   0  0  0  0  0  0  0  0  0  0  0  0
   -2.2223  -52.5364  -28.4972 N   0  0  0  0  0  0  0  0  0  0  0  0
   -2.2316  -52.2362  -27.1768 C   0  0  0  0  0  0  0  0  0  0  0  0
   -0.9784  -52.4947  -26.7423 N   0  0  0  0  0  0  0  0  0  0  0  0
   -0.6112  -52.3755  -25.7537 H   0  0  0  0  0  0  0  0  0  0  0  0
    3.6140  -50.5355  -23.1375 C   0  0  0  0  0  0  0  0  0  0  0  0
    5.0322  -50.4779  -23.4822 C   0  0  0  0  0  0  0  0  0  0  0  0
    5.6227  -49.8840  -24.5774 C   0  0  0  0  0  0  0  0  0  0  0  0
    6.9784  -50.0493  -24.4981 N   0  0  0  0  0  0  0  0  0  0  0  0
    7.2229  -50.7280  -23.3834 C   0  0  0  0  0  0  0  0  0  0  0  0
    6.0625  -50.9837  -22.7785 N   0  0  0  0  0  0  0  0  0  0  0  0
    5.9575  -51.5027  -21.8824 H   0  0  0  0  0  0  0  0  0  0  0  0
   -0.1310  -53.2952  -21.6956 C   0  0  0  0  0  0  0  0  0  0  0  0
    0.0783  -53.0651  -20.2756 C   0  0  0  0  0  0  0  0  0  0  0  0
    0.7281  -53.9518  -19.6203 O   0  0  0  0  0  0  0  0  0  0  0  0
   -0.3643  -51.9538  -19.5162 N   0  0  0  0  0  0  0  0  0  0  0  0
   -0.9002  -51.1881  -19.9276 H   0  0  0  0  0  0  0  0  0  0  0  0
   -0.0847  -51.8313  -18.0894 C   0  0  0  0  0  0  0  0  0  0  0  0
   -1.2453  -52.3140  -17.2839 C   0  0  0  0  0  0  0  0  0  0  0  0
   -1.7406  -53.5764  -17.5576 O   0  0  0  0  0  0  0  0  0  0  0  0
   -1.7935  -51.6439  -16.3790 O   0  0  0  0  0  0  0  0  0  0  0  0
   -2.7300  -53.7517  -17.4148 H   0  0  0  0  0  0  0  0  0  0  0  0
    0.3298  -50.4340  -17.7275 C   0  0  0  0  0  0  0  0  0  0  0  0
    1.5907  -50.1191  -18.4380 C   0  0  0  0  0  0  0  0  0  0  0  0
    2.6706  -50.9421  -18.3011 C   0  0  0  0  0  0  0  0  0  0  0  0
    3.8390  -50.6610  -18.9604 C   0  0  0  0  0  0  0  0  0  0  0  0
    3.9622  -49.5464  -19.7779 C   0  0  0  0  0  0  0  0  0  0  0  0
    2.8566  -48.7304  -19.9000 C   0  0  0  0  0  0  0  0  0  0  0  0
    1.6830  -48.9894  -19.2536 C   0  0  0  0  0  0  0  0  0  0  0  0
   -0.8099  -54.5985  -21.9758 C   0  0  0  0  0  0  0  0  0  0  0  0
   -1.0577  -54.7282  -23.4581 C   0  0  0  0  0  0  0  0  0  0  0  0
   -1.2955  -55.9451  -24.0673 O   0  0  0  0  0  0  0  0  0  0  0  0
   -1.0427  -53.6937  -24.1560 O   0  0  0  0  0  0  0  0  0  0  0  0
   -1.1171  -56.1587  -25.0188 H   0  0  0  0  0  0  0  0  0  0  0  0
 10 11  1  0  0  0
 11 14  1  0  0  0
 14 15  1  0  0  0
 15 16  2  0  0  0
 16 17  1  0  0  0
 17 18  2  0  0  0
 18 19  1  0  0  0
 11  6  1  0  0  0
  6  7  2  0  0  0
  6  8  1  0  0  0
  8  5  1  0  0  0
  5 21  1  0  0  0
 21 22  1  0  0  0
 22 23  2  0  0  0
 23 24  1  0  0  0
 24 25  2  0  0  0
 25 26  1  0  0  0
  5  1  1  0  0  0
  1  2  2  0  0  0
  1  3  1  0  0  0
  3 28  1  0  0  0
 28 45  1  0  0  0
 45 46  1  0  0  0
 46 47  1  0  0  0
 46 48  2  0  0  0
 28 29  1  0  0  0
 29 30  2  0  0  0
 29 31  1  0  0  0
 31 33  1  0  0  0
 33 38  1  0  0  0
 38 39  1  0  0  0
 39 40  2  0  0  0
 40 41  1  0  0  0
 41 42  2  0  0  0
 42 43  1  0  0  0
 43 44  2  0  0  0
 33 34  1  0  0  0
 34 35  1  0  0  0
 34 36  2  0  0  0
 19 15  1  0  0  0
 26 22  1  0  0  0
 44 39  1  0  0  0
 10 12  1  0  0  0
 10 13  1  0  0  0
 19 20  1  0  0  0
  8  9  1  0  0  0
 26 27  1  0  0  0
  3  4  1  0  0  0
 47 49  1  0  0  0
 31 32  1  0  0  0
 35 37  1  0  0  0
M  END
> <minimizedAffinity>
-7.70475

> <CNNscore>
0.0970710590

> <CNNaffinity>
6.3076920509

> <CNN_VS>
0.6122943759

> <CNNaffinity_variance>
0.9803347588

$$$$
[H]OC(=O)C([H])([H])[C@@]([H])(C(=O)N([H])[C@]([H])(C(=O)O[H])C([H])([H])c1c([H])c([H])c([H])c([H])c1[H])N([H])C(=O)[C@@]([H])(N([H])C(=O)[C@@]([H])(N([H])[H])C([H])([H])c1c([H])nc([H])n1[H])C([H])([H])c1c([H])nc([H])n1[H]


 49 51  0  0  0  0  0  0  0  0999 V2000
    2.2180  -50.5431  -21.9696 C   0  0  0  0  0  0  0  0  0  0  0  0
    3.2598  -51.0928  -22.3871 O   0  0  0  0  0  0  0  0  0  0  0  0
    2.0750  -49.1817  -21.8317 N   0  0  0  0  0  0  0  0  0  0  0  0
    1.0702  -48.8910  -21.4708 H   0  0  0  0  0  0  0  0  0  0  0  0
    1.0799  -51.5149  -21.6156 C   0  0  0  0  0  0  0  0  0  0  0  0
   -0.2289  -53.1071  -22.9694 C   0  0  0  0  0  0  0  0  0  0  0  0
   -1.1761  -53.0299  -22.1136 O   0  0  0  0  0  0  0  0  0  0  0  0
    0.9431  -52.3585  -22.7685 N   0  0  0  0  0  0  0  0  0  0  0  0
    1.7111  -52.4117  -23.4493 H   0  0  0  0  0  0  0  0  0  0  0  0
   -1.4174  -55.0696  -23.8340 N   0  0  0  0  0  0  0  0  0  0  0  0
   -0.5016  -54.0126  -24.1090 C   0  0  0  0  0  0  0  0  0  0  0  0
   -1.0814  -55.7512  -23.1481 H   0  0  0  0  0  0  0  0  0  0  0  0
   -2.4006  -54.7905  -23.7845 H   0  0  0  0  0  0  0  0  0  0  0  0
   -0.8176  -53.1844  -25.3109 C   0  0  0  0  0  0  0  0  0  0  0  0
    0.1221  -53.3312  -26.4338 C   0  0  0  0  0  0  0  0  0  0  0  0
    0.2801  -54.5041  -27.1445 C   0  0  0  0  0  0  0  0  0  0  0  0
    1.2070  -54.2895  -28.0922 N   0  0  0  0  0  0  0  0  0  0  0  0
    1.6523  -53.0130  -28.0147 C   0  0  0  0  0  0  0  0  0  0  0  0
    0.9682  -52.4569  -26.9906 N   0  0  0  0  0  0  0  0  0  0  0  0
    1.0550  -51.4608  -26.6349 H   0  0  0  0  0  0  0  0  0  0  0  0
    1.5329  -52.1812  -20.3772 C   0  0  0  0  0  0  0  0  0  0  0  0
    1.5014  -51.3983  -19.1445 C   0  0  0  0  0  0  0  0  0  0  0  0
    2.5590  -51.0162  -18.3468 C   0  0  0  0  0  0  0  0  0  0  0  0
    2.0835  -50.2746  -17.3001 N   0  0  0  0  0  0  0  0  0  0  0  0
    0.7658  -50.1986  -17.4442 C   0  0  0  0  0  0  0  0  0  0  0  0
    0.4193  -50.8690  -18.5434 N   0  0  0  0  0  0  0  0  0  0  0  0
   -0.5539  -50.9736  -18.8975 H   0  0  0  0  0  0  0  0  0  0  0  0
    2.9344  -48.0701  -22.0563 C   0  0  0  0  0  0  0  0  0  0  0  0
    3.2834  -47.8958  -23.4566 C   0  0  0  0  0  0  0  0  0  0  0  0
    2.8792  -46.8312  -24.0407 O   0  0  0  0  0  0  0  0  0  0  0  0
    4.0306  -48.7855  -24.2676 N   0  0  0  0  0  0  0  0  0  0  0  0
    4.3974  -49.6708  -23.9149 H   0  0  0  0  0  0  0  0  0  0  0  0
    4.3239  -48.4952  -25.6671 C   0  0  0  0  0  0  0  0  0  0  0  0
    3.6046  -49.4488  -26.5627 C   0  0  0  0  0  0  0  0  0  0  0  0
    4.0433  -49.5628  -27.8697 O   0  0  0  0  0  0  0  0  0  0  0  0
    2.6310  -50.1478  -26.1995 O   0  0  0  0  0  0  0  0  0  0  0  0
    3.3662  -49.7877  -28.5916 H   0  0  0  0  0  0  0  0  0  0  0  0
    5.8031  -48.4631  -25.9246 C   0  0  0  0  0  0  0  0  0  0  0  0
    6.5036  -48.8991  -24.6945 C   0  0  0  0  0  0  0  0  0  0  0  0
    6.7002  -50.2291  -24.4607 C   0  0  0  0  0  0  0  0  0  0  0  0
    7.3531  -50.6404  -23.3278 C   0  0  0  0  0  0  0  0  0  0  0  0
    7.8299  -49.7318  -22.3935 C   0  0  0  0  0  0  0  0  0  0  0  0
    7.6189  -48.3933  -22.6528 C   0  0  0  0  0  0  0  0  0  0  0  0
    6.9716  -47.9599  -23.7732 C   0  0  0  0  0  0  0  0  0  0  0  0
    4.0997  -47.8660  -21.1406 C   0  0  0  0  0  0  0  0  0  0  0  0
    3.6005  -47.5058  -19.7635 C   0  0  0  0  0  0  0  0  0  0  0  0
    2.2960  -47.7260  -19.3657 O   0  0  0  0  0  0  0  0  0  0  0  0
    4.4002  -46.9862  -18.9585 O   0  0  0  0  0  0  0  0  0  0  0  0
    1.8155  -47.2231  -18.6592 H   0  0  0  0  0  0  0  0  0  0  0  0
 10 11  1  0  0  0
 11 14  1  0  0  0
 14 15  1  0  0  0
 15 16  2  0  0  0
 16 17  1  0  0  0
 17 18  2  0  0  0
 18 19  1  0  0  0
 11  6  1  0  0  0
  6  7  2  0  0  0
  6  8  1  0  0  0
  8  5  1  0  0  0
  5 21  1  0  0  0
 21 22  1  0  0  0
 22 23  2  0  0  0
 23 24  1  0  0  0
 24 25  2  0  0  0
 25 26  1  0  0  0
  5  1  1  0  0  0
  1  2  2  0  0  0
  1  3  1  0  0  0
  3 28  1  0  0  0
 28 45  1  0  0  0
 45 46  1  0  0  0
 46 47  1  0  0  0
 46 48  2  0  0  0
 28 29  1  0  0  0
 29 30  2  0  0  0
 29 31  1  0  0  0
 31 33  1  0  0  0
 33 38  1  0  0  0
 38 39  1  0  0  0
 39 40  2  0  0  0
 40 41  1  0  0  0
 41 42  2  0  0  0
 42 43  1  0  0  0
 43 44  2  0  0  0
 33 34  1  0  0  0
 34 35  1  0  0  0
 34 36  2  0  0  0
 19 15  1  0  0  0
 26 22  1  0  0  0
 44 39  1  0  0  0
 10 12  1  0  0  0
 10 13  1  0  0  0
 19 20  1  0  0  0
  8  9  1  0  0  0
 26 27  1  0  0  0
  3  4  1  0  0  0
 47 49  1  0  0  0
 31 32  1  0  0  0
 35 37  1  0  0  0
M  END
> <minimizedAffinity>
-6.39776

> <CNNscore>
0.0948519111

> <CNNaffinity>
6.2138452530

> <CNN_VS>
0.5893951058

> <CNNaffinity_variance>
0.3466967940

$$$$
[H]c1c(-n2nnnc2[H])c([H])c2c(C([H])([H])C([H])([H])N(C([H])([H])[H])C([H])([H])[H])c([H])n([H])c2c1[H]


 20 22  0  0  0  0  0  0  0  0999 V2000
   -0.3455  -53.5883  -24.3256 C   0  0  0  0  0  0  0  0  0  0  0  0
   -0.9857  -54.8217  -24.3271 C   0  0  0  0  0  0  0  0  0  0  0  0
   -1.3370  -55.1438  -23.0739 N   0  0  0  0  0  0  0  0  0  0  0  0
   -0.9379  -54.1427  -22.2605 C   0  0  0  0  0  0  0  0  0  0  0  0
   -1.0584  -53.9896  -20.8890 C   0  0  0  0  0  0  0  0  0  0  0  0
   -0.5581  -52.8605  -20.2943 C   0  0  0  0  0  0  0  0  0  0  0  0
    0.0747  -51.8458  -21.0142 C   0  0  0  0  0  0  0  0  0  0  0  0
    0.1768  -52.0306  -22.3724 C   0  0  0  0  0  0  0  0  0  0  0  0
   -0.3117  -53.1528  -23.0212 C   0  0  0  0  0  0  0  0  0  0  0  0
   -1.8371  -56.0142  -22.7449 H   0  0  0  0  0  0  0  0  0  0  0  0
    0.5806  -50.6953  -20.3564 N   0  0  0  0  0  0  0  0  0  0  0  0
    0.7566  -50.5355  -19.0323 C   0  0  0  0  0  0  0  0  0  0  0  0
    1.2500  -49.3164  -18.7732 N   0  0  0  0  0  0  0  0  0  0  0  0
    1.3817  -48.7171  -19.9440 N   0  0  0  0  0  0  0  0  0  0  0  0
    0.9768  -49.5565  -20.8802 N   0  0  0  0  0  0  0  0  0  0  0  0
    0.2025  -52.8824  -25.5053 C   0  0  0  0  0  0  0  0  0  0  0  0
   -0.8312  -52.8504  -26.6003 C   0  0  0  0  0  0  0  0  0  0  0  0
    0.9483  -53.7555  -27.9773 C   0  0  0  0  0  0  0  0  0  0  0  0
   -0.4019  -53.3200  -27.8655 N   0  0  0  0  0  0  0  0  0  0  0  0
   -0.9156  -52.6107  -28.9977 C   0  0  0  0  0  0  0  0  0  0  0  0
 18 19  1  0  0  0
 19 20  1  0  0  0
 19 17  1  0  0  0
 17 16  1  0  0  0
 16  1  1  0  0  0
  1  2  2  0  0  0
  2  3  1  0  0  0
  3  4  1  0  0  0
  4  5  2  0  0  0
  5  6  1  0  0  0
  6  7  2  0  0  0
  7  8  1  0  0  0
  8  9  2  0  0  0
  7 11  1  0  0  0
 11 12  1  0  0  0
 12 13  2  0  0  0
 13 14  1  0  0  0
 14 15  2  0  0  0
  9  1  1  0  0  0
 15 11  1  0  0  0
  9  4  1  0  0  0
  3 10  1  0  0  0
M  END
> <minimizedAffinity>
-6.49299

> <CNNscore>
0.6700462699

> <CNNaffinity>
6.1175966263

> <CNN_VS>
4.0990729332

> <CNNaffinity_variance>
0.0686937124

$$$$
[H]c1c(-n2nnnc2[H])c([H])c2c(C([H])([H])C([H])([H])N(C([H])([H])[H])C([H])([H])[H])c([H])n([H])c2c1[H]


 20 22  0  0  0  0  0  0  0  0999 V2000
   -0.0864  -52.1873  -21.0142 C   0  0  0  0  0  0  0  0  0  0  0  0
   -0.6610  -52.7823  -19.8975 C   0  0  0  0  0  0  0  0  0  0  0  0
   -1.2426  -53.9359  -20.2560 N   0  0  0  0  0  0  0  0  0  0  0  0
   -1.0552  -54.1007  -21.5830 C   0  0  0  0  0  0  0  0  0  0  0  0
   -1.4565  -55.1179  -22.4334 C   0  0  0  0  0  0  0  0  0  0  0  0
   -1.1354  -55.0447  -23.7640 C   0  0  0  0  0  0  0  0  0  0  0  0
   -0.4146  -53.9807  -24.3087 C   0  0  0  0  0  0  0  0  0  0  0  0
   -0.0326  -52.9895  -23.4365 C   0  0  0  0  0  0  0  0  0  0  0  0
   -0.3319  -53.0161  -22.0843 C   0  0  0  0  0  0  0  0  0  0  0  0
   -1.7618  -54.6186  -19.6393 H   0  0  0  0  0  0  0  0  0  0  0  0
   -0.1072  -53.9448  -25.6931 N   0  0  0  0  0  0  0  0  0  0  0  0
   -0.5701  -53.0649  -26.5993 C   0  0  0  0  0  0  0  0  0  0  0  0
   -0.0692  -53.3400  -27.8118 N   0  0  0  0  0  0  0  0  0  0  0  0
    0.7100  -54.3964  -27.6561 N   0  0  0  0  0  0  0  0  0  0  0  0
    0.6757  -54.7448  -26.3824 N   0  0  0  0  0  0  0  0  0  0  0  0
    0.6444  -50.9007  -21.0448 C   0  0  0  0  0  0  0  0  0  0  0  0
    2.0163  -51.0846  -20.4510 C   0  0  0  0  0  0  0  0  0  0  0  0
    1.4045  -49.5414  -18.6828 C   0  0  0  0  0  0  0  0  0  0  0  0
    2.1654  -50.6671  -19.1060 N   0  0  0  0  0  0  0  0  0  0  0  0
    3.4920  -50.7482  -18.5744 C   0  0  0  0  0  0  0  0  0  0  0  0
 18 19  1  0  0  0
 19 20  1  0  0  0
 19 17  1  0  0  0
 17 16  1  0  0  0
 16  1  1  0  0  0
  1  2  2  0  0  0
  2  3  1  0  0  0
  3  4  1  0  0  0
  4  5  2  0  0  0
  5  6  1  0  0  0
  6  7  2  0  0  0
  7  8  1  0  0  0
  8  9  2  0  0  0
  7 11  1  0  0  0
 11 12  1  0  0  0
 12 13  2  0  0  0
 13 14  1  0  0  0
 14 15  2  0  0  0
  9  1  1  0  0  0
 15 11  1  0  0  0
  9  4  1  0  0  0
  3 10  1  0  0  0
M  END
> <minimizedAffinity>
-6.81865

> <CNNscore>
0.6400073171

> <CNNaffinity>
5.8852338791

> <CNN_VS>
3.7665927410

> <CNNaffinity_variance>
0.1516808420

$$$$
[H]c1c(-n2nnnc2[H])c([H])c2c(C([H])([H])C([H])([H])N(C([H])([H])[H])C([H])([H])[H])c([H])n([H])c2c1[H]


 20 22  0  0  0  0  0  0  0  0999 V2000
   -0.0250  -52.2145  -21.0205 C   0  0  0  0  0  0  0  0  0  0  0  0
   -0.6077  -52.8128  -19.9098 C   0  0  0  0  0  0  0  0  0  0  0  0
   -1.2058  -53.9542  -20.2800 N   0  0  0  0  0  0  0  0  0  0  0  0
   -1.0213  -54.1078  -21.6087 C   0  0  0  0  0  0  0  0  0  0  0  0
   -1.4376  -55.1102  -22.4694 C   0  0  0  0  0  0  0  0  0  0  0  0
   -1.1160  -55.0278  -23.7994 C   0  0  0  0  0  0  0  0  0  0  0  0
   -0.3802  -53.9686  -24.3334 C   0  0  0  0  0  0  0  0  0  0  0  0
    0.0163  -52.9921  -23.4511 C   0  0  0  0  0  0  0  0  0  0  0  0
   -0.2828  -53.0285  -22.0991 C   0  0  0  0  0  0  0  0  0  0  0  0
   -1.7346  -54.6358  -19.6701 H   0  0  0  0  0  0  0  0  0  0  0  0
   -0.0729  -53.9227  -25.7175 N   0  0  0  0  0  0  0  0  0  0  0  0
   -0.3097  -52.9032  -26.5627 C   0  0  0  0  0  0  0  0  0  0  0  0
    0.1104  -53.2157  -27.7966 N   0  0  0  0  0  0  0  0  0  0  0  0
    0.6118  -54.4361  -27.7157 N   0  0  0  0  0  0  0  0  0  0  0  0
    0.4941  -54.8437  -26.4646 N   0  0  0  0  0  0  0  0  0  0  0  0
    0.7241  -50.9383  -21.0382 C   0  0  0  0  0  0  0  0  0  0  0  0
    2.1773  -51.2013  -20.7424 C   0  0  0  0  0  0  0  0  0  0  0  0
    4.4112  -51.5254  -21.6296 C   0  0  0  0  0  0  0  0  0  0  0  0
    3.0270  -51.2992  -21.8711 N   0  0  0  0  0  0  0  0  0  0  0  0
    2.7282  -50.4094  -22.9519 C   0  0  0  0  0  0  0  0  0  0  0  0
 18 19  1  0  0  0
 19 20  1  0  0  0
 19 17  1  0  0  0
 17 16  1  0  0  0
 16  1  1  0  0  0
  1  2  2  0  0  0
  2  3  1  0  0  0
  3  4  1  0  0  0
  4  5  2  0  0  0
  5  6  1  0  0  0
  6  7  2  0  0  0
  7  8  1  0  0  0
  8  9  2  0  0  0
  7 11  1  0  0  0
 11 12  1  0  0  0
 12 13  2  0  0  0
 13 14  1  0  0  0
 14 15  2  0  0  0
  9  1  1  0  0  0
 15 11  1  0  0  0
  9  4  1  0  0  0
  3 10  1  0  0  0
M  END
> <minimizedAffinity>
-6.83919

> <CNNscore>
0.6354399323

> <CNNaffinity>
5.9269847870

> <CNN_VS>
3.7662427425

> <CNNaffinity_variance>
0.1095894799

$$$$
[H]c1c(-n2nnnc2[H])c([H])c2c(C([H])([H])C([H])([H])N(C([H])([H])[H])C([H])([H])[H])c([H])n([H])c2c1[H]


 20 22  0  0  0  0  0  0  0  0999 V2000
    0.0976  -50.2464  -16.9984 C   0  0  0  0  0  0  0  0  0  0  0  0
    0.8754  -49.1079  -16.8254 C   0  0  0  0  0  0  0  0  0  0  0  0
    1.5113  -48.8234  -17.9710 N   0  0  0  0  0  0  0  0  0  0  0  0
    1.1599  -49.7547  -18.8834 C   0  0  0  0  0  0  0  0  0  0  0  0
    1.5373  -49.9113  -20.2070 C   0  0  0  0  0  0  0  0  0  0  0  0
    1.0305  -50.9608  -20.9286 C   0  0  0  0  0  0  0  0  0  0  0  0
    0.1418  -51.8902  -20.3858 C   0  0  0  0  0  0  0  0  0  0  0  0
   -0.2109  -51.7046  -19.0704 C   0  0  0  0  0  0  0  0  0  0  0  0
    0.2728  -50.6611  -18.2984 C   0  0  0  0  0  0  0  0  0  0  0  0
    2.1742  -48.0235  -18.1625 H   0  0  0  0  0  0  0  0  0  0  0  0
   -0.3552  -52.9634  -21.1691 N   0  0  0  0  0  0  0  0  0  0  0  0
   -1.2157  -53.9191  -20.7742 C   0  0  0  0  0  0  0  0  0  0  0  0
   -1.4572  -54.7712  -21.7803 N   0  0  0  0  0  0  0  0  0  0  0  0
   -0.7428  -54.3405  -22.8057 N   0  0  0  0  0  0  0  0  0  0  0  0
   -0.0898  -53.2580  -22.4225 N   0  0  0  0  0  0  0  0  0  0  0  0
   -0.7518  -50.8931  -15.9735 C   0  0  0  0  0  0  0  0  0  0  0  0
    0.0118  -52.0137  -15.3180 C   0  0  0  0  0  0  0  0  0  0  0  0
   -0.1238  -50.6482  -13.3182 C   0  0  0  0  0  0  0  0  0  0  0  0
    0.4300  -51.7764  -13.9860 N   0  0  0  0  0  0  0  0  0  0  0  0
    1.8110  -52.0362  -13.7134 C   0  0  0  0  0  0  0  0  0  0  0  0
 18 19  1  0  0  0
 19 20  1  0  0  0
 19 17  1  0  0  0
 17 16  1  0  0  0
 16  1  1  0  0  0
  1  2  2  0  0  0
  2  3  1  0  0  0
  3  4  1  0  0  0
  4  5  2  0  0  0
  5  6  1  0  0  0
  6  7  2  0  0  0
  7  8  1  0  0  0
  8  9  2  0  0  0
  7 11  1  0  0  0
 11 12  1  0  0  0
 12 13  2  0  0  0
 13 14  1  0  0  0
 14 15  2  0  0  0
  9  1  1  0  0  0
 15 11  1  0  0  0
  9  4  1  0  0  0
  3 10  1  0  0  0
M  END
> <minimizedAffinity>
-5.31499

> <CNNscore>
0.5834358335

> <CNNaffinity>
5.2040739059

> <CNN_VS>
3.0362432003

> <CNNaffinity_variance>
0.1486111879

$$$$
[H]c1c(-n2nnnc2[H])c([H])c2c(C([H])([H])C([H])([H])N(C([H])([H])[H])C([H])([H])[H])c([H])n([H])c2c1[H]


 20 22  0  0  0  0  0  0  0  0999 V2000
   -0.3179  -53.7844  -24.1298 C   0  0  0  0  0  0  0  0  0  0  0  0
   -1.1790  -54.8603  -23.9506 C   0  0  0  0  0  0  0  0  0  0  0  0
   -1.2866  -55.1328  -22.6422 N   0  0  0  0  0  0  0  0  0  0  0  0
   -0.5129  -54.2538  -21.9699 C   0  0  0  0  0  0  0  0  0  0  0  0
   -0.2765  -54.1112  -20.6125 C   0  0  0  0  0  0  0  0  0  0  0  0
    0.5686  -53.1224  -20.1798 C   0  0  0  0  0  0  0  0  0  0  0  0
    1.2098  -52.2423  -21.0531 C   0  0  0  0  0  0  0  0  0  0  0  0
    0.9524  -52.4125  -22.3925 C   0  0  0  0  0  0  0  0  0  0  0  0
    0.1073  -53.3955  -22.8806 C   0  0  0  0  0  0  0  0  0  0  0  0
   -1.8632  -55.8899  -22.1835 H   0  0  0  0  0  0  0  0  0  0  0  0
    2.0792  -51.2353  -20.5609 N   0  0  0  0  0  0  0  0  0  0  0  0
    1.7812  -49.9383  -20.3639 C   0  0  0  0  0  0  0  0  0  0  0  0
    2.8510  -49.2822  -19.8932 N   0  0  0  0  0  0  0  0  0  0  0  0
    3.8181  -50.1783  -19.7965 N   0  0  0  0  0  0  0  0  0  0  0  0
    3.3389  -51.3413  -20.2000 N   0  0  0  0  0  0  0  0  0  0  0  0
    0.0723  -53.1785  -25.4224 C   0  0  0  0  0  0  0  0  0  0  0  0
   -1.0852  -52.3947  -25.9830 C   0  0  0  0  0  0  0  0  0  0  0  0
   -2.5724  -52.4089  -27.8987 C   0  0  0  0  0  0  0  0  0  0  0  0
   -1.2444  -52.4533  -27.3889 N   0  0  0  0  0  0  0  0  0  0  0  0
   -0.3495  -53.3319  -28.0788 C   0  0  0  0  0  0  0  0  0  0  0  0
 18 19  1  0  0  0
 19 20  1  0  0  0
 19 17  1  0  0  0
 17 16  1  0  0  0
 16  1  1  0  0  0
  1  2  2  0  0  0
  2  3  1  0  0  0
  3  4  1  0  0  0
  4  5  2  0  0  0
  5  6  1  0  0  0
  6  7  2  0  0  0
  7  8  1  0  0  0
  8  9  2  0  0  0
  7 11  1  0  0  0
 11 12  1  0  0  0
 12 13  2  0  0  0
 13 14  1  0  0  0
 14 15  2  0  0  0
  9  1  1  0  0  0
 15 11  1  0  0  0
  9  4  1  0  0  0
  3 10  1  0  0  0
M  END
> <minimizedAffinity>
-6.05375

> <CNNscore>
0.5614315867

> <CNNaffinity>
5.9209256172

> <CNN_VS>
3.3241946697

> <CNNaffinity_variance>
0.0997699201

$$$$
[H]c1c(-n2nnnc2[H])c([H])c2c(C([H])([H])C([H])([H])N(C([H])([H])[H])C([H])([H])[H])c([H])n([H])c2c1[H]


 20 22  0  0  0  0  0  0  0  0999 V2000
    0.0935  -50.9753  -17.1036 C   0  0  0  0  0  0  0  0  0  0  0  0
    0.7012  -49.7383  -16.9259 C   0  0  0  0  0  0  0  0  0  0  0  0
    1.0584  -49.2409  -18.1187 N   0  0  0  0  0  0  0  0  0  0  0  0
    0.6932  -50.1311  -19.0660 C   0  0  0  0  0  0  0  0  0  0  0  0
    0.8357  -50.0951  -20.4435 C   0  0  0  0  0  0  0  0  0  0  0  0
    0.3742  -51.1462  -21.1925 C   0  0  0  0  0  0  0  0  0  0  0  0
   -0.2397  -52.2643  -20.6258 C   0  0  0  0  0  0  0  0  0  0  0  0
   -0.3645  -52.2667  -19.2570 C   0  0  0  0  0  0  0  0  0  0  0  0
    0.0851  -51.2302  -18.4555 C   0  0  0  0  0  0  0  0  0  0  0  0
    1.5396  -48.3222  -18.3196 H   0  0  0  0  0  0  0  0  0  0  0  0
   -0.6997  -53.3312  -21.4398 N   0  0  0  0  0  0  0  0  0  0  0  0
   -0.3420  -53.5877  -22.7110 C   0  0  0  0  0  0  0  0  0  0  0  0
   -0.9817  -54.6753  -23.1631 N   0  0  0  0  0  0  0  0  0  0  0  0
   -1.7400  -55.0965  -22.1656 N   0  0  0  0  0  0  0  0  0  0  0  0
   -1.5587  -54.2808  -21.1424 N   0  0  0  0  0  0  0  0  0  0  0  0
   -0.4364  -51.8541  -16.0373 C   0  0  0  0  0  0  0  0  0  0  0  0
   -1.0374  -51.0134  -14.9417 C   0  0  0  0  0  0  0  0  0  0  0  0
   -3.1829  -51.7417  -15.8066 C   0  0  0  0  0  0  0  0  0  0  0  0
   -2.4398  -50.8285  -15.0071 N   0  0  0  0  0  0  0  0  0  0  0  0
   -2.8853  -49.4688  -15.0506 C   0  0  0  0  0  0  0  0  0  0  0  0
 18 19  1  0  0  0
 19 20  1  0  0  0
 19 17  1  0  0  0
 17 16  1  0  0  0
 16  1  1  0  0  0
  1  2  2  0  0  0
  2  3  1  0  0  0
  3  4  1  0  0  0
  4  5  2  0  0  0
  5  6  1  0  0  0
  6  7  2  0  0  0
  7  8  1  0  0  0
  8  9  2  0  0  0
  7 11  1  0  0  0
 11 12  1  0  0  0
 12 13  2  0  0  0
 13 14  1  0  0  0
 14 15  2  0  0  0
  9  1  1  0  0  0
 15 11  1  0  0  0
  9  4  1  0  0  0
  3 10  1  0  0  0
M  END
> <minimizedAffinity>
-5.88053

> <CNNscore>
0.5546826124

> <CNNaffinity>
5.0403199196

> <CNN_VS>
2.7957777977

> <CNNaffinity_variance>
0.2479881942

$$$$
[H]c1c(-n2nnnc2[H])c([H])c2c(C([H])([H])C([H])([H])N(C([H])([H])[H])C([H])([H])[H])c([H])n([H])c2c1[H]


 20 22  0  0  0  0  0  0  0  0999 V2000
    2.8224  -52.2291  -25.7053 C   0  0  0  0  0  0  0  0  0  0  0  0
    2.9797  -52.6047  -27.0339 C   0  0  0  0  0  0  0  0  0  0  0  0
    2.0075  -53.4634  -27.3732 N   0  0  0  0  0  0  0  0  0  0  0  0
    1.2227  -53.6510  -26.2906 C   0  0  0  0  0  0  0  0  0  0  0  0
    0.0955  -54.4371  -26.1162 C   0  0  0  0  0  0  0  0  0  0  0  0
   -0.5273  -54.4541  -24.8952 C   0  0  0  0  0  0  0  0  0  0  0  0
   -0.0736  -53.7076  -23.8065 C   0  0  0  0  0  0  0  0  0  0  0  0
    1.0468  -52.9392  -24.0149 C   0  0  0  0  0  0  0  0  0  0  0  0
    1.7125  -52.8874  -25.2286 C   0  0  0  0  0  0  0  0  0  0  0  0
    1.8518  -53.9289  -28.3087 H   0  0  0  0  0  0  0  0  0  0  0  0
   -0.7481  -53.7581  -22.5596 N   0  0  0  0  0  0  0  0  0  0  0  0
   -0.8519  -52.7649  -21.6581 C   0  0  0  0  0  0  0  0  0  0  0  0
   -1.5580  -53.1745  -20.5950 N   0  0  0  0  0  0  0  0  0  0  0  0
   -1.8950  -54.4292  -20.8392 N   0  0  0  0  0  0  0  0  0  0  0  0
   -1.4023  -54.7620  -22.0189 N   0  0  0  0  0  0  0  0  0  0  0  0
    3.6912  -51.3019  -24.9465 C   0  0  0  0  0  0  0  0  0  0  0  0
    4.7451  -52.0858  -24.2095 C   0  0  0  0  0  0  0  0  0  0  0  0
    3.8648  -51.5001  -22.0268 C   0  0  0  0  0  0  0  0  0  0  0  0
    4.9929  -51.6805  -22.8755 N   0  0  0  0  0  0  0  0  0  0  0  0
    6.0518  -50.7331  -22.7012 C   0  0  0  0  0  0  0  0  0  0  0  0
 18 19  1  0  0  0
 19 20  1  0  0  0
 19 17  1  0  0  0
 17 16  1  0  0  0
 16  1  1  0  0  0
  1  2  2  0  0  0
  2  3  1  0  0  0
  3  4  1  0  0  0
  4  5  2  0  0  0
  5  6  1  0  0  0
  6  7  2  0  0  0
  7  8  1  0  0  0
  8  9  2  0  0  0
  7 11  1  0  0  0
 11 12  1  0  0  0
 12 13  2  0  0  0
 13 14  1  0  0  0
 14 15  2  0  0  0
  9  1  1  0  0  0
 15 11  1  0  0  0
  9  4  1  0  0  0
  3 10  1  0  0  0
M  END
> <minimizedAffinity>
-6.27936

> <CNNscore>
0.4293518960

> <CNNaffinity>
5.5942735672

> <CNN_VS>
2.4019119740

> <CNNaffinity_variance>
0.1771110892

$$$$
[H]c1c(-n2nnnc2[H])c([H])c2c(C([H])([H])C([H])([H])N(C([H])([H])[H])C([H])([H])[H])c([H])n([H])c2c1[H]


 20 22  0  0  0  0  0  0  0  0999 V2000
    0.3995  -53.4075  -24.8013 C   0  0  0  0  0  0  0  0  0  0  0  0
   -0.2342  -54.4714  -25.4318 C   0  0  0  0  0  0  0  0  0  0  0  0
   -1.0128  -55.1136  -24.5492 N   0  0  0  0  0  0  0  0  0  0  0  0
   -0.8969  -54.4861  -23.3593 C   0  0  0  0  0  0  0  0  0  0  0  0
   -1.4877  -54.7528  -22.1351 C   0  0  0  0  0  0  0  0  0  0  0  0
   -1.1965  -53.9514  -21.0618 C   0  0  0  0  0  0  0  0  0  0  0  0
   -0.3222  -52.8666  -21.1455 C   0  0  0  0  0  0  0  0  0  0  0  0
    0.2458  -52.6311  -22.3748 C   0  0  0  0  0  0  0  0  0  0  0  0
   -0.0152  -53.4107  -23.4896 C   0  0  0  0  0  0  0  0  0  0  0  0
   -1.6214  -55.9605  -24.7183 H   0  0  0  0  0  0  0  0  0  0  0  0
   -0.0473  -52.0656  -20.0074 N   0  0  0  0  0  0  0  0  0  0  0  0
    0.4799  -50.8280  -20.0006 C   0  0  0  0  0  0  0  0  0  0  0  0
    0.6016  -50.3819  -18.7425 N   0  0  0  0  0  0  0  0  0  0  0  0
    0.1460  -51.3486  -17.9644 N   0  0  0  0  0  0  0  0  0  0  0  0
   -0.2382  -52.3482  -18.7378 N   0  0  0  0  0  0  0  0  0  0  0  0
    1.3474  -52.4567  -25.4240 C   0  0  0  0  0  0  0  0  0  0  0  0
    0.7714  -51.9429  -26.7173 C   0  0  0  0  0  0  0  0  0  0  0  0
    0.6269  -53.1625  -28.8086 C   0  0  0  0  0  0  0  0  0  0  0  0
    1.4080  -52.3972  -27.8978 N   0  0  0  0  0  0  0  0  0  0  0  0
    2.7672  -52.8200  -27.7466 C   0  0  0  0  0  0  0  0  0  0  0  0
 18 19  1  0  0  0
 19 20  1  0  0  0
 19 17  1  0  0  0
 17 16  1  0  0  0
 16  1  1  0  0  0
  1  2  2  0  0  0
  2  3  1  0  0  0
  3  4  1  0  0  0
  4  5  2  0  0  0
  5  6  1  0  0  0
  6  7  2  0  0  0
  7  8  1  0  0  0
  8  9  2  0  0  0
  7 11  1  0  0  0
 11 12  1  0  0  0
 12 13  2  0  0  0
 13 14  1  0  0  0
 14 15  2  0  0  0
  9  1  1  0  0  0
 15 11  1  0  0  0
  9  4  1  0  0  0
  3 10  1  0  0  0
M  END
> <minimizedAffinity>
-6.71286

> <CNNscore>
0.4265846908

> <CNNaffinity>
5.7510085106

> <CNN_VS>
2.4532921314

> <CNNaffinity_variance>
0.2741810679

$$$$
[H]c1c(-n2nnnc2[H])c([H])c2c(C([H])([H])C([H])([H])N(C([H])([H])[H])C([H])([H])[H])c([H])n([H])c2c1[H]


 20 22  0  0  0  0  0  0  0  0999 V2000
   -0.2359  -54.0975  -24.3402 C   0  0  0  0  0  0  0  0  0  0  0  0
   -1.0524  -55.0708  -23.7769 C   0  0  0  0  0  0  0  0  0  0  0  0
   -1.3645  -54.7196  -22.5212 N   0  0  0  0  0  0  0  0  0  0  0  0
   -0.7670  -53.5372  -22.2600 C   0  0  0  0  0  0  0  0  0  0  0  0
   -0.7725  -52.7544  -21.1171 C   0  0  0  0  0  0  0  0  0  0  0  0
   -0.0705  -51.5771  -21.1080 C   0  0  0  0  0  0  0  0  0  0  0  0
    0.6583  -51.1248  -22.2092 C   0  0  0  0  0  0  0  0  0  0  0  0
    0.6417  -51.9261  -23.3257 C   0  0  0  0  0  0  0  0  0  0  0  0
   -0.0512  -53.1240  -23.3859 C   0  0  0  0  0  0  0  0  0  0  0  0
   -1.9665  -55.2471  -21.8317 H   0  0  0  0  0  0  0  0  0  0  0  0
    1.3732  -49.9007  -22.1540 N   0  0  0  0  0  0  0  0  0  0  0  0
    1.1876  -48.8973  -21.2775 C   0  0  0  0  0  0  0  0  0  0  0  0
    2.0418  -47.8958  -21.5302 N   0  0  0  0  0  0  0  0  0  0  0  0
    2.7624  -48.2812  -22.5693 N   0  0  0  0  0  0  0  0  0  0  0  0
    2.3491  -49.4831  -22.9295 N   0  0  0  0  0  0  0  0  0  0  0  0
    0.3326  -54.1120  -25.7065 C   0  0  0  0  0  0  0  0  0  0  0  0
   -0.5457  -53.3069  -26.6278 C   0  0  0  0  0  0  0  0  0  0  0  0
    1.1238  -53.5362  -28.3721 C   0  0  0  0  0  0  0  0  0  0  0  0
   -0.2461  -53.4089  -28.0082 N   0  0  0  0  0  0  0  0  0  0  0  0
   -1.0407  -52.5954  -28.8775 C   0  0  0  0  0  0  0  0  0  0  0  0
 18 19  1  0  0  0
 19 20  1  0  0  0
 19 17  1  0  0  0
 17 16  1  0  0  0
 16  1  1  0  0  0
  1  2  2  0  0  0
  2  3  1  0  0  0
  3  4  1  0  0  0
  4  5  2  0  0  0
  5  6  1  0  0  0
  6  7  2  0  0  0
  7  8  1  0  0  0
  8  9  2  0  0  0
  7 11  1  0  0  0
 11 12  1  0  0  0
 12 13  2  0  0  0
 13 14  1  0  0  0
 14 15  2  0  0  0
  9  1  1  0  0  0
 15 11  1  0  0  0
  9  4  1  0  0  0
  3 10  1  0  0  0
M  END
> <minimizedAffinity>
-6.32942

> <CNNscore>
0.4104720354

> <CNNaffinity>
5.8808078766

> <CNN_VS>
2.4139072895

> <CNNaffinity_variance>
0.0668978915

$$$$
