[H]C([H])=C([H])C(=O)N1C([H])([H])C([H])([H])C([H])([H])[C@@]([H])(n2nc(C#Cc3c([H])c([H])c4nc([H])n(C([H])([H])c5c([H])c([H])c([H])c([H])c5OC([H])([H])[H])c4c3[H])c3c(N([H])[H])nc([H])nc32)C1([H])[H]


 42 47  0  0  0  0  0  0  0  0999 V2000
    0.5845  -52.1499  -21.1625 C   0  0  0  0  0  0  0  0  0  0  0  0
    1.3364  -51.7739  -22.2051 N   0  0  0  0  0  0  0  0  0  0  0  0
    1.0193  -52.4915  -23.2841 N   0  0  0  0  0  0  0  0  0  0  0  0
    0.0483  -53.3661  -22.9941 C   0  0  0  0  0  0  0  0  0  0  0  0
   -0.6389  -54.3102  -23.6734 N   0  0  0  0  0  0  0  0  0  0  0  0
   -1.5827  -55.0280  -23.0340 C   0  0  0  0  0  0  0  0  0  0  0  0
   -1.8612  -54.8283  -21.7267 N   0  0  0  0  0  0  0  0  0  0  0  0
   -1.2022  -53.9001  -21.0137 C   0  0  0  0  0  0  0  0  0  0  0  0
   -1.4728  -53.6639  -19.6293 N   0  0  0  0  0  0  0  0  0  0  0  0
   -0.2378  -53.1621  -21.6553 C   0  0  0  0  0  0  0  0  0  0  0  0
   -1.0161  -54.2177  -18.8882 H   0  0  0  0  0  0  0  0  0  0  0  0
   -2.1535  -52.9075  -19.3883 H   0  0  0  0  0  0  0  0  0  0  0  0
    1.6146  -52.3719  -24.5933 C   0  0  0  0  0  0  0  0  0  0  0  0
    2.5381  -51.1809  -24.6646 C   0  0  0  0  0  0  0  0  0  0  0  0
    3.1068  -51.0654  -26.0541 C   0  0  0  0  0  0  0  0  0  0  0  0
    2.6578  -52.1840  -26.9686 C   0  0  0  0  0  0  0  0  0  0  0  0
    1.2238  -52.3435  -26.9332 N   0  0  0  0  0  0  0  0  0  0  0  0
    0.5421  -52.1672  -25.6721 C   0  0  0  0  0  0  0  0  0  0  0  0
    0.4989  -52.6633  -28.0911 C   0  0  0  0  0  0  0  0  0  0  0  0
    1.0709  -52.8265  -29.2100 O   0  0  0  0  0  0  0  0  0  0  0  0
   -0.9467  -52.8165  -28.0328 C   0  0  0  0  0  0  0  0  0  0  0  0
   -1.6676  -52.6600  -29.1198 C   0  0  0  0  0  0  0  0  0  0  0  0
    0.5817  -51.2498  -18.6784 C   0  0  0  0  0  0  0  0  0  0  0  0
    0.5867  -51.6517  -19.8153 C   0  0  0  0  0  0  0  0  0  0  0  0
   -1.7165  -49.5698  -14.6766 N   0  0  0  0  0  0  0  0  0  0  0  0
   -1.1474  -49.2589  -13.4667 C   0  0  0  0  0  0  0  0  0  0  0  0
    0.1731  -49.4529  -13.5045 N   0  0  0  0  0  0  0  0  0  0  0  0
    0.5114  -49.8941  -14.7268 C   0  0  0  0  0  0  0  0  0  0  0  0
    1.7108  -50.2620  -15.2928 C   0  0  0  0  0  0  0  0  0  0  0  0
    1.7254  -50.7048  -16.5880 C   0  0  0  0  0  0  0  0  0  0  0  0
    0.5609  -50.7782  -17.3038 C   0  0  0  0  0  0  0  0  0  0  0  0
   -0.6287  -50.4147  -16.7492 C   0  0  0  0  0  0  0  0  0  0  0  0
   -0.6957  -49.9582  -15.4409 C   0  0  0  0  0  0  0  0  0  0  0  0
   -3.1195  -49.4140  -14.9555 C   0  0  0  0  0  0  0  0  0  0  0  0
   -4.0961  -51.6952  -15.2857 C   0  0  0  0  0  0  0  0  0  0  0  0
   -4.8756  -52.7256  -14.7574 C   0  0  0  0  0  0  0  0  0  0  0  0
   -5.4257  -52.6716  -13.5103 C   0  0  0  0  0  0  0  0  0  0  0  0
   -5.2085  -51.5592  -12.7339 C   0  0  0  0  0  0  0  0  0  0  0  0
   -4.4505  -50.5510  -13.2425 C   0  0  0  0  0  0  0  0  0  0  0  0
   -3.8790  -50.5957  -14.5270 C   0  0  0  0  0  0  0  0  0  0  0  0
   -3.0604  -53.0941  -16.9618 C   0  0  0  0  0  0  0  0  0  0  0  0
   -3.6036  -51.8859  -16.5468 O   0  0  0  0  0  0  0  0  0  0  0  0
 41 42  1  0  0  0
 42 35  1  0  0  0
 35 36  2  0  0  0
 36 37  1  0  0  0
 37 38  2  0  0  0
 38 39  1  0  0  0
 39 40  2  0  0  0
 40 34  1  0  0  0
 34 25  1  0  0  0
 25 26  1  0  0  0
 26 27  2  0  0  0
 27 28  1  0  0  0
 28 29  2  0  0  0
 29 30  1  0  0  0
 30 31  2  0  0  0
 31 32  1  0  0  0
 32 33  2  0  0  0
 31 23  1  0  0  0
 23 24  3  0  0  0
 24  1  1  0  0  0
  1  2  2  0  0  0
  2  3  1  0  0  0
  3 13  1  0  0  0
 13 14  1  0  0  0
 14 15  1  0  0  0
 15 16  1  0  0  0
 16 17  1  0  0  0
 17 18  1  0  0  0
 17 19  1  0  0  0
 19 20  2  0  0  0
 19 21  1  0  0  0
 21 22  2  0  0  0
  3  4  1  0  0  0
  4  5  2  0  0  0
  5  6  1  0  0  0
  6  7  2  0  0  0
  7  8  1  0  0  0
  8  9  1  0  0  0
  8 10  2  0  0  0
 40 35  1  0  0  0
 33 25  1  0  0  0
 10  1  1  0  0  0
 33 28  1  0  0  0
 18 13  1  0  0  0
 10  4  1  0  0  0
  9 11  1  0  0  0
  9 12  1  0  0  0
M  END
> <minimizedAffinity>
-9.18115

> <CNNscore>
0.8198252320

> <CNNaffinity>
7.8131561279

> <CNN_VS>
6.4054226875

> <CNNaffinity_variance>
0.0712404549

$$$$
[H]C([H])=C([H])C(=O)N1C([H])([H])C([H])([H])C([H])([H])[C@@]([H])(n2nc(C#Cc3c([H])c([H])c4nc([H])n(C([H])([H])c5c([H])c([H])c([H])c([H])c5OC([H])([H])[H])c4c3[H])c3c(N([H])[H])nc([H])nc32)C1([H])[H]


 42 47  0  0  0  0  0  0  0  0999 V2000
    0.6055  -52.2803  -22.0801 C   0  0  0  0  0  0  0  0  0  0  0  0
    1.2188  -52.0697  -23.2521 N   0  0  0  0  0  0  0  0  0  0  0  0
    0.7801  -52.9391  -24.1640 N   0  0  0  0  0  0  0  0  0  0  0  0
   -0.1370  -53.7541  -23.6288 C   0  0  0  0  0  0  0  0  0  0  0  0
   -0.8910  -54.7849  -24.0690 N   0  0  0  0  0  0  0  0  0  0  0  0
   -1.7400  -55.3927  -23.2178 C   0  0  0  0  0  0  0  0  0  0  0  0
   -1.8580  -54.9974  -21.9309 N   0  0  0  0  0  0  0  0  0  0  0  0
   -1.1277  -53.9770  -21.4517 C   0  0  0  0  0  0  0  0  0  0  0  0
   -1.2288  -53.5341  -20.0955 N   0  0  0  0  0  0  0  0  0  0  0  0
   -0.2587  -53.3498  -22.3106 C   0  0  0  0  0  0  0  0  0  0  0  0
   -0.6776  -53.9734  -19.3420 H   0  0  0  0  0  0  0  0  0  0  0  0
   -1.8839  -52.7458  -19.8881 H   0  0  0  0  0  0  0  0  0  0  0  0
    1.2082  -53.0210  -25.5398 C   0  0  0  0  0  0  0  0  0  0  0  0
    2.5629  -52.3838  -25.7272 C   0  0  0  0  0  0  0  0  0  0  0  0
    2.9566  -52.4519  -27.1790 C   0  0  0  0  0  0  0  0  0  0  0  0
    1.9391  -53.1785  -28.0311 C   0  0  0  0  0  0  0  0  0  0  0  0
    0.6089  -52.6651  -27.8076 N   0  0  0  0  0  0  0  0  0  0  0  0
    0.2363  -52.2781  -26.4668 C   0  0  0  0  0  0  0  0  0  0  0  0
   -0.3093  -52.5413  -28.8611 C   0  0  0  0  0  0  0  0  0  0  0  0
   -0.0106  -52.8756  -30.0464 O   0  0  0  0  0  0  0  0  0  0  0  0
   -1.6442  -52.0185  -28.6133 C   0  0  0  0  0  0  0  0  0  0  0  0
   -2.6569  -52.8438  -28.4748 C   0  0  0  0  0  0  0  0  0  0  0  0
    0.9169  -51.0146  -19.7819 C   0  0  0  0  0  0  0  0  0  0  0  0
    0.7674  -51.5857  -20.8334 C   0  0  0  0  0  0  0  0  0  0  0  0
    0.2073  -50.5631  -14.9434 N   0  0  0  0  0  0  0  0  0  0  0  0
    0.7200  -49.5913  -14.1206 C   0  0  0  0  0  0  0  0  0  0  0  0
    1.4549  -48.7229  -14.8197 N   0  0  0  0  0  0  0  0  0  0  0  0
    1.4503  -49.0923  -16.1107 C   0  0  0  0  0  0  0  0  0  0  0  0
    2.0491  -48.5747  -17.2367 C   0  0  0  0  0  0  0  0  0  0  0  0
    1.8692  -49.2103  -18.4357 C   0  0  0  0  0  0  0  0  0  0  0  0
    1.1042  -50.3432  -18.5066 C   0  0  0  0  0  0  0  0  0  0  0  0
    0.5086  -50.8593  -17.3959 C   0  0  0  0  0  0  0  0  0  0  0  0
    0.6594  -50.2512  -16.1581 C   0  0  0  0  0  0  0  0  0  0  0  0
   -0.6659  -51.6105  -14.4839 C   0  0  0  0  0  0  0  0  0  0  0  0
   -2.8951  -50.4843  -14.3129 C   0  0  0  0  0  0  0  0  0  0  0  0
   -4.2019  -50.3900  -14.7940 C   0  0  0  0  0  0  0  0  0  0  0  0
   -4.6645  -51.1459  -15.8311 C   0  0  0  0  0  0  0  0  0  0  0  0
   -3.8144  -52.0412  -16.4340 C   0  0  0  0  0  0  0  0  0  0  0  0
   -2.5397  -52.1388  -15.9700 C   0  0  0  0  0  0  0  0  0  0  0  0
   -2.0525  -51.3650  -14.9012 C   0  0  0  0  0  0  0  0  0  0  0  0
   -2.5211  -48.2802  -13.3960 C   0  0  0  0  0  0  0  0  0  0  0  0
   -2.5659  -49.6620  -13.2714 O   0  0  0  0  0  0  0  0  0  0  0  0
 41 42  1  0  0  0
 42 35  1  0  0  0
 35 36  2  0  0  0
 36 37  1  0  0  0
 37 38  2  0  0  0
 38 39  1  0  0  0
 39 40  2  0  0  0
 40 34  1  0  0  0
 34 25  1  0  0  0
 25 26  1  0  0  0
 26 27  2  0  0  0
 27 28  1  0  0  0
 28 29  2  0  0  0
 29 30  1  0  0  0
 30 31  2  0  0  0
 31 32  1  0  0  0
 32 33  2  0  0  0
 31 23  1  0  0  0
 23 24  3  0  0  0
 24  1  1  0  0  0
  1  2  2  0  0  0
  2  3  1  0  0  0
  3 13  1  0  0  0
 13 14  1  0  0  0
 14 15  1  0  0  0
 15 16  1  0  0  0
 16 17  1  0  0  0
 17 18  1  0  0  0
 17 19  1  0  0  0
 19 20  2  0  0  0
 19 21  1  0  0  0
 21 22  2  0  0  0
  3  4  1  0  0  0
  4  5  2  0  0  0
  5  6  1  0  0  0
  6  7  2  0  0  0
  7  8  1  0  0  0
  8  9  1  0  0  0
  8 10  2  0  0  0
 40 35  1  0  0  0
 33 25  1  0  0  0
 10  1  1  0  0  0
 33 28  1  0  0  0
 18 13  1  0  0  0
 10  4  1  0  0  0
  9 11  1  0  0  0
  9 12  1  0  0  0
M  END
> <minimizedAffinity>
-9.59883

> <CNNscore>
0.6511043310

> <CNNaffinity>
7.6660776138

> <CNN_VS>
4.9914164543

> <CNNaffinity_variance>
0.1136145219

$$$$
[H]C([H])=C([H])C(=O)N1C([H])([H])C([H])([H])C([H])([H])[C@@]([H])(n2nc(C#Cc3c([H])c([H])c4nc([H])n(C([H])([H])c5c([H])c([H])c([H])c([H])c5OC([H])([H])[H])c4c3[H])c3c(N([H])[H])nc([H])nc32)C1([H])[H]


 42 47  0  0  0  0  0  0  0  0999 V2000
    0.4284  -51.9433  -20.8171 C   0  0  0  0  0  0  0  0  0  0  0  0
    1.1618  -51.5001  -21.8464 N   0  0  0  0  0  0  0  0  0  0  0  0
    0.8936  -52.2112  -22.9428 N   0  0  0  0  0  0  0  0  0  0  0  0
   -0.0249  -53.1483  -22.6783 C   0  0  0  0  0  0  0  0  0  0  0  0
   -0.6511  -54.1163  -23.3824 N   0  0  0  0  0  0  0  0  0  0  0  0
   -1.5536  -54.9031  -22.7649 C   0  0  0  0  0  0  0  0  0  0  0  0
   -1.8501  -54.7494  -21.4553 N   0  0  0  0  0  0  0  0  0  0  0  0
   -1.2514  -53.7997  -20.7180 C   0  0  0  0  0  0  0  0  0  0  0  0
   -1.5426  -53.6108  -19.3305 N   0  0  0  0  0  0  0  0  0  0  0  0
   -0.3295  -52.9915  -21.3372 C   0  0  0  0  0  0  0  0  0  0  0  0
   -1.0574  -54.1528  -18.5988 H   0  0  0  0  0  0  0  0  0  0  0  0
   -2.2685  -52.9019  -19.0774 H   0  0  0  0  0  0  0  0  0  0  0  0
    1.4873  -52.0273  -24.2453 C   0  0  0  0  0  0  0  0  0  0  0  0
    2.2450  -50.7247  -24.3191 C   0  0  0  0  0  0  0  0  0  0  0  0
    2.8142  -50.5492  -25.7021 C   0  0  0  0  0  0  0  0  0  0  0  0
    2.5318  -51.7274  -26.6085 C   0  0  0  0  0  0  0  0  0  0  0  0
    1.1315  -52.0762  -26.5904 N   0  0  0  0  0  0  0  0  0  0  0  0
    0.4135  -51.9788  -25.3409 C   0  0  0  0  0  0  0  0  0  0  0  0
    0.4731  -52.5020  -27.7539 C   0  0  0  0  0  0  0  0  0  0  0  0
    1.0786  -52.5994  -28.8628 O   0  0  0  0  0  0  0  0  0  0  0  0
   -0.9399  -52.8459  -27.7131 C   0  0  0  0  0  0  0  0  0  0  0  0
   -1.6947  -52.6461  -28.7697 C   0  0  0  0  0  0  0  0  0  0  0  0
    0.3479  -51.0902  -18.3178 C   0  0  0  0  0  0  0  0  0  0  0  0
    0.3941  -51.4759  -19.4594 C   0  0  0  0  0  0  0  0  0  0  0  0
    2.3594  -49.8837  -14.0031 N   0  0  0  0  0  0  0  0  0  0  0  0
    1.7069  -49.4157  -12.8897 C   0  0  0  0  0  0  0  0  0  0  0  0
    0.3924  -49.3403  -13.1119 N   0  0  0  0  0  0  0  0  0  0  0  0
    0.1408  -49.7506  -14.3655 C   0  0  0  0  0  0  0  0  0  0  0  0
   -1.0158  -49.8546  -15.1042 C   0  0  0  0  0  0  0  0  0  0  0  0
   -0.9395  -50.2946  -16.3983 C   0  0  0  0  0  0  0  0  0  0  0  0
    0.2722  -50.6243  -16.9431 C   0  0  0  0  0  0  0  0  0  0  0  0
    1.4197  -50.5242  -16.2166 C   0  0  0  0  0  0  0  0  0  0  0  0
    1.3948  -50.0849  -14.9009 C   0  0  0  0  0  0  0  0  0  0  0  0
    3.7783  -50.1185  -14.0496 C   0  0  0  0  0  0  0  0  0  0  0  0
    4.4660  -47.8740  -14.9191 C   0  0  0  0  0  0  0  0  0  0  0  0
    5.2692  -46.7454  -14.7483 C   0  0  0  0  0  0  0  0  0  0  0  0
    6.1101  -46.5902  -13.6853 C   0  0  0  0  0  0  0  0  0  0  0  0
    6.1754  -47.5823  -12.7372 C   0  0  0  0  0  0  0  0  0  0  0  0
    5.3960  -48.6852  -12.8975 C   0  0  0  0  0  0  0  0  0  0  0  0
    4.5262  -48.8560  -13.9897 C   0  0  0  0  0  0  0  0  0  0  0  0
    2.6909  -46.9353  -16.2631 C   0  0  0  0  0  0  0  0  0  0  0  0
    3.6670  -47.8939  -16.0283 O   0  0  0  0  0  0  0  0  0  0  0  0
 41 42  1  0  0  0
 42 35  1  0  0  0
 35 36  2  0  0  0
 36 37  1  0  0  0
 37 38  2  0  0  0
 38 39  1  0  0  0
 39 40  2  0  0  0
 40 34  1  0  0  0
 34 25  1  0  0  0
 25 26  1  0  0  0
 26 27  2  0  0  0
 27 28  1  0  0  0
 28 29  2  0  0  0
 29 30  1  0  0  0
 30 31  2  0  0  0
 31 32  1  0  0  0
 32 33  2  0  0  0
 31 23  1  0  0  0
 23 24  3  0  0  0
 24  1  1  0  0  0
  1  2  2  0  0  0
  2  3  1  0  0  0
  3 13  1  0  0  0
 13 14  1  0  0  0
 14 15  1  0  0  0
 15 16  1  0  0  0
 16 17  1  0  0  0
 17 18  1  0  0  0
 17 19  1  0  0  0
 19 20  2  0  0  0
 19 21  1  0  0  0
 21 22  2  0  0  0
  3  4  1  0  0  0
  4  5  2  0  0  0
  5  6  1  0  0  0
  6  7  2  0  0  0
  7  8  1  0  0  0
  8  9  1  0  0  0
  8 10  2  0  0  0
 40 35  1  0  0  0
 33 25  1  0  0  0
 10  1  1  0  0  0
 33 28  1  0  0  0
 18 13  1  0  0  0
 10  4  1  0  0  0
  9 11  1  0  0  0
  9 12  1  0  0  0
M  END
> <minimizedAffinity>
-8.78652

> <CNNscore>
0.6055359840

> <CNNaffinity>
7.5312013626

> <CNN_VS>
4.5604133606

> <CNNaffinity_variance>
0.3574643135

$$$$
[H]C([H])=C([H])C(=O)N1C([H])([H])C([H])([H])C([H])([H])[C@@]([H])(n2nc(C#Cc3c([H])c([H])c4nc([H])n(C([H])([H])c5c([H])c([H])c([H])c([H])c5OC([H])([H])[H])c4c3[H])c3c(N([H])[H])nc([H])nc32)C1([H])[H]


 42 47  0  0  0  0  0  0  0  0999 V2000
    1.0138  -52.5194  -21.9832 C   0  0  0  0  0  0  0  0  0  0  0  0
    1.5859  -52.3257  -23.1786 N   0  0  0  0  0  0  0  0  0  0  0  0
    0.9548  -53.0399  -24.1122 N   0  0  0  0  0  0  0  0  0  0  0  0
   -0.0551  -53.7301  -23.5685 C   0  0  0  0  0  0  0  0  0  0  0  0
   -0.9969  -54.5864  -24.0210 N   0  0  0  0  0  0  0  0  0  0  0  0
   -1.8866  -55.1077  -23.1542 C   0  0  0  0  0  0  0  0  0  0  0  0
   -1.8620  -54.7959  -21.8394 N   0  0  0  0  0  0  0  0  0  0  0  0
   -0.9432  -53.9489  -21.3471 C   0  0  0  0  0  0  0  0  0  0  0  0
   -0.8900  -53.5982  -19.9615 N   0  0  0  0  0  0  0  0  0  0  0  0
   -0.0310  -53.4112  -22.2218 C   0  0  0  0  0  0  0  0  0  0  0  0
   -0.3791  -54.1777  -19.2777 H   0  0  0  0  0  0  0  0  0  0  0  0
   -1.3890  -52.7304  -19.6593 H   0  0  0  0  0  0  0  0  0  0  0  0
    1.2834  -53.0881  -25.5166 C   0  0  0  0  0  0  0  0  0  0  0  0
    2.6220  -52.4458  -25.7847 C   0  0  0  0  0  0  0  0  0  0  0  0
    2.9110  -52.4783  -27.2622 C   0  0  0  0  0  0  0  0  0  0  0  0
    1.8344  -53.1845  -28.0568 C   0  0  0  0  0  0  0  0  0  0  0  0
    0.5241  -52.6774  -27.7265 N   0  0  0  0  0  0  0  0  0  0  0  0
    0.2487  -52.3234  -26.3535 C   0  0  0  0  0  0  0  0  0  0  0  0
   -0.4669  -52.5285  -28.7084 C   0  0  0  0  0  0  0  0  0  0  0  0
   -0.2540  -52.8337  -29.9198 O   0  0  0  0  0  0  0  0  0  0  0  0
   -1.7800  -52.0126  -28.3532 C   0  0  0  0  0  0  0  0  0  0  0  0
   -2.8341  -52.7930  -28.4288 C   0  0  0  0  0  0  0  0  0  0  0  0
    1.6367  -51.4855  -19.6329 C   0  0  0  0  0  0  0  0  0  0  0  0
    1.3621  -51.9565  -20.7085 C   0  0  0  0  0  0  0  0  0  0  0  0
    0.4289  -49.1025  -15.5121 N   0  0  0  0  0  0  0  0  0  0  0  0
    1.2551  -48.8072  -14.4564 C   0  0  0  0  0  0  0  0  0  0  0  0
    2.4949  -49.2427  -14.6934 N   0  0  0  0  0  0  0  0  0  0  0  0
    2.5235  -49.8333  -15.8991 C   0  0  0  0  0  0  0  0  0  0  0  0
    3.5195  -50.4585  -16.6141 C   0  0  0  0  0  0  0  0  0  0  0  0
    3.2209  -50.9970  -17.8367 C   0  0  0  0  0  0  0  0  0  0  0  0
    1.9487  -50.9115  -18.3346 C   0  0  0  0  0  0  0  0  0  0  0  0
    0.9594  -50.2932  -17.6320 C   0  0  0  0  0  0  0  0  0  0  0  0
    1.2119  -49.7307  -16.3892 C   0  0  0  0  0  0  0  0  0  0  0  0
   -0.9556  -48.7141  -15.5673 C   0  0  0  0  0  0  0  0  0  0  0  0
   -2.0599  -47.2876  -13.8317 C   0  0  0  0  0  0  0  0  0  0  0  0
   -2.1963  -46.0169  -13.2707 C   0  0  0  0  0  0  0  0  0  0  0  0
   -1.4817  -44.9377  -13.7016 C   0  0  0  0  0  0  0  0  0  0  0  0
   -0.5868  -45.0994  -14.7315 C   0  0  0  0  0  0  0  0  0  0  0  0
   -0.4491  -46.3347  -15.2833 C   0  0  0  0  0  0  0  0  0  0  0  0
   -1.1812  -47.4540  -14.8475 C   0  0  0  0  0  0  0  0  0  0  0  0
   -2.2963  -49.4271  -12.7338 C   0  0  0  0  0  0  0  0  0  0  0  0
   -2.8353  -48.2787  -13.2972 O   0  0  0  0  0  0  0  0  0  0  0  0
 41 42  1  0  0  0
 42 35  1  0  0  0
 35 36  2  0  0  0
 36 37  1  0  0  0
 37 38  2  0  0  0
 38 39  1  0  0  0
 39 40  2  0  0  0
 40 34  1  0  0  0
 34 25  1  0  0  0
 25 26  1  0  0  0
 26 27  2  0  0  0
 27 28  1  0  0  0
 28 29  2  0  0  0
 29 30  1  0  0  0
 30 31  2  0  0  0
 31 32  1  0  0  0
 32 33  2  0  0  0
 31 23  1  0  0  0
 23 24  3  0  0  0
 24  1  1  0  0  0
  1  2  2  0  0  0
  2  3  1  0  0  0
  3 13  1  0  0  0
 13 14  1  0  0  0
 14 15  1  0  0  0
 15 16  1  0  0  0
 16 17  1  0  0  0
 17 18  1  0  0  0
 17 19  1  0  0  0
 19 20  2  0  0  0
 19 21  1  0  0  0
 21 22  2  0  0  0
  3  4  1  0  0  0
  4  5  2  0  0  0
  5  6  1  0  0  0
  6  7  2  0  0  0
  7  8  1  0  0  0
  8  9  1  0  0  0
  8 10  2  0  0  0
 40 35  1  0  0  0
 33 25  1  0  0  0
 10  1  1  0  0  0
 33 28  1  0  0  0
 18 13  1  0  0  0
 10  4  1  0  0  0
  9 11  1  0  0  0
  9 12  1  0  0  0
M  END
> <minimizedAffinity>
-8.52802

> <CNNscore>
0.5500061512

> <CNNaffinity>
7.5078706741

> <CNN_VS>
4.1293749809

> <CNNaffinity_variance>
0.2891154885

$$$$
[H]C([H])=C([H])C(=O)N1C([H])([H])C([H])([H])C([H])([H])[C@@]([H])(n2nc(C#Cc3c([H])c([H])c4nc([H])n(C([H])([H])c5c([H])c([H])c([H])c([H])c5OC([H])([H])[H])c4c3[H])c3c(N([H])[H])nc([H])nc32)C1([H])[H]


 42 47  0  0  0  0  0  0  0  0999 V2000
    1.0262  -51.9729  -21.0509 C   0  0  0  0  0  0  0  0  0  0  0  0
    1.7036  -51.5169  -22.1125 N   0  0  0  0  0  0  0  0  0  0  0  0
    1.3206  -52.1629  -23.2152 N   0  0  0  0  0  0  0  0  0  0  0  0
    0.3782  -53.0674  -22.9229 C   0  0  0  0  0  0  0  0  0  0  0  0
   -0.3455  -53.9712  -23.6188 N   0  0  0  0  0  0  0  0  0  0  0  0
   -1.2386  -54.7429  -22.9695 C   0  0  0  0  0  0  0  0  0  0  0  0
   -1.4306  -54.6368  -21.6360 N   0  0  0  0  0  0  0  0  0  0  0  0
   -0.7327  -53.7515  -20.9057 C   0  0  0  0  0  0  0  0  0  0  0  0
   -0.9119  -53.6141  -19.4934 N   0  0  0  0  0  0  0  0  0  0  0  0
    0.1807  -52.9592  -21.5571 C   0  0  0  0  0  0  0  0  0  0  0  0
   -0.4022  -54.2117  -18.8243 H   0  0  0  0  0  0  0  0  0  0  0  0
   -1.5809  -52.8846  -19.1560 H   0  0  0  0  0  0  0  0  0  0  0  0
    1.8259  -51.9463  -24.5496 C   0  0  0  0  0  0  0  0  0  0  0  0
    2.6556  -53.1177  -25.0142 C   0  0  0  0  0  0  0  0  0  0  0  0
    3.1981  -52.8380  -26.3908 C   0  0  0  0  0  0  0  0  0  0  0  0
    2.7267  -51.5139  -26.9511 C   0  0  0  0  0  0  0  0  0  0  0  0
    2.9396  -50.4424  -26.0079 N   0  0  0  0  0  0  0  0  0  0  0  0
    2.7340  -50.7101  -24.6035 C   0  0  0  0  0  0  0  0  0  0  0  0
    3.3363  -49.1661  -26.4346 C   0  0  0  0  0  0  0  0  0  0  0  0
    3.5212  -48.9023  -27.6602 O   0  0  0  0  0  0  0  0  0  0  0  0
    3.5478  -48.1015  -25.4659 C   0  0  0  0  0  0  0  0  0  0  0  0
    4.7381  -47.5615  -25.3338 C   0  0  0  0  0  0  0  0  0  0  0  0
    1.1934  -51.2112  -18.5266 C   0  0  0  0  0  0  0  0  0  0  0  0
    1.1147  -51.5683  -19.6756 C   0  0  0  0  0  0  0  0  0  0  0  0
   -0.3424  -51.0413  -13.8649 N   0  0  0  0  0  0  0  0  0  0  0  0
    0.2517  -50.3729  -12.8234 C   0  0  0  0  0  0  0  0  0  0  0  0
    1.3392  -49.7212  -13.2422 N   0  0  0  0  0  0  0  0  0  0  0  0
    1.4946  -49.9387  -14.5582 C   0  0  0  0  0  0  0  0  0  0  0  0
    2.4405  -49.5311  -15.4712 C   0  0  0  0  0  0  0  0  0  0  0  0
    2.3345  -49.9522  -16.7694 C   0  0  0  0  0  0  0  0  0  0  0  0
    1.3009  -50.7664  -17.1471 C   0  0  0  0  0  0  0  0  0  0  0  0
    0.3617  -51.1720  -16.2482 C   0  0  0  0  0  0  0  0  0  0  0  0
    0.4243  -50.7714  -14.9215 C   0  0  0  0  0  0  0  0  0  0  0  0
   -1.5620  -51.7931  -13.7309 C   0  0  0  0  0  0  0  0  0  0  0  0
   -3.6631  -51.5836  -15.0757 C   0  0  0  0  0  0  0  0  0  0  0  0
   -4.6672  -50.7438  -15.5602 C   0  0  0  0  0  0  0  0  0  0  0  0
   -4.7232  -49.4127  -15.2670 C   0  0  0  0  0  0  0  0  0  0  0  0
   -3.7538  -48.8667  -14.4610 C   0  0  0  0  0  0  0  0  0  0  0  0
   -2.7719  -49.6789  -13.9859 C   0  0  0  0  0  0  0  0  0  0  0  0
   -2.7040  -51.0523  -14.2822 C   0  0  0  0  0  0  0  0  0  0  0  0
   -4.9385  -53.5374  -15.7037 C   0  0  0  0  0  0  0  0  0  0  0  0
   -3.7339  -52.8980  -15.4452 O   0  0  0  0  0  0  0  0  0  0  0  0
 41 42  1  0  0  0
 42 35  1  0  0  0
 35 36  2  0  0  0
 36 37  1  0  0  0
 37 38  2  0  0  0
 38 39  1  0  0  0
 39 40  2  0  0  0
 40 34  1  0  0  0
 34 25  1  0  0  0
 25 26  1  0  0  0
 26 27  2  0  0  0
 27 28  1  0  0  0
 28 29  2  0  0  0
 29 30  1  0  0  0
 30 31  2  0  0  0
 31 32  1  0  0  0
 32 33  2  0  0  0
 31 23  1  0  0  0
 23 24  3  0  0  0
 24  1  1  0  0  0
  1  2  2  0  0  0
  2  3  1  0  0  0
  3 13  1  0  0  0
 13 14  1  0  0  0
 14 15  1  0  0  0
 15 16  1  0  0  0
 16 17  1  0  0  0
 17 18  1  0  0  0
 17 19  1  0  0  0
 19 20  2  0  0  0
 19 21  1  0  0  0
 21 22  2  0  0  0
  3  4  1  0  0  0
  4  5  2  0  0  0
  5  6  1  0  0  0
  6  7  2  0  0  0
  7  8  1  0  0  0
  8  9  1  0  0  0
  8 10  2  0  0  0
 40 35  1  0  0  0
 33 25  1  0  0  0
 10  1  1  0  0  0
 33 28  1  0  0  0
 18 13  1  0  0  0
 10  4  1  0  0  0
  9 11  1  0  0  0
  9 12  1  0  0  0
M  END
> <minimizedAffinity>
-8.84355

> <CNNscore>
0.5418235064

> <CNNaffinity>
7.6595840454

> <CNN_VS>
4.1501426697

> <CNNaffinity_variance>
0.2641792893

$$$$
[H]C([H])=C([H])C(=O)N1C([H])([H])C([H])([H])C([H])([H])[C@@]([H])(n2nc(C#Cc3c([H])c([H])c4nc([H])n(C([H])([H])c5c([H])c([H])c([H])c([H])c5OC([H])([H])[H])c4c3[H])c3c(N([H])[H])nc([H])nc32)C1([H])[H]


 42 47  0  0  0  0  0  0  0  0999 V2000
    0.4057  -51.8710  -20.3345 C   0  0  0  0  0  0  0  0  0  0  0  0
    1.2510  -51.3223  -21.2166 N   0  0  0  0  0  0  0  0  0  0  0  0
    1.1695  -51.9558  -22.3879 N   0  0  0  0  0  0  0  0  0  0  0  0
    0.2692  -52.9443  -22.3223 C   0  0  0  0  0  0  0  0  0  0  0  0
   -0.2078  -53.8775  -23.1745 N   0  0  0  0  0  0  0  0  0  0  0  0
   -1.1477  -54.7430  -22.7473 C   0  0  0  0  0  0  0  0  0  0  0  0
   -1.6275  -54.7025  -21.4846 N   0  0  0  0  0  0  0  0  0  0  0  0
   -1.1812  -53.7910  -20.6046 C   0  0  0  0  0  0  0  0  0  0  0  0
   -1.6681  -53.7213  -19.2616 N   0  0  0  0  0  0  0  0  0  0  0  0
   -0.2230  -52.9034  -21.0292 C   0  0  0  0  0  0  0  0  0  0  0  0
   -1.2622  -54.2998  -18.5100 H   0  0  0  0  0  0  0  0  0  0  0  0
   -2.4548  -53.0618  -19.0624 H   0  0  0  0  0  0  0  0  0  0  0  0
    1.9262  -51.6494  -23.5780 C   0  0  0  0  0  0  0  0  0  0  0  0
    2.4738  -50.2444  -23.5281 C   0  0  0  0  0  0  0  0  0  0  0  0
    3.2208  -49.9480  -24.8016 C   0  0  0  0  0  0  0  0  0  0  0  0
    3.2727  -51.1319  -25.7424 C   0  0  0  0  0  0  0  0  0  0  0  0
    1.9588  -51.6919  -25.9498 N   0  0  0  0  0  0  0  0  0  0  0  0
    1.0455  -51.7382  -24.8318 C   0  0  0  0  0  0  0  0  0  0  0  0
    1.5677  -52.1837  -27.2043 C   0  0  0  0  0  0  0  0  0  0  0  0
    2.3490  -52.1584  -28.2016 O   0  0  0  0  0  0  0  0  0  0  0  0
    0.2371  -52.7415  -27.3913 C   0  0  0  0  0  0  0  0  0  0  0  0
    0.0686  -54.0442  -27.4126 C   0  0  0  0  0  0  0  0  0  0  0  0
   -0.0435  -51.1930  -17.8207 C   0  0  0  0  0  0  0  0  0  0  0  0
    0.1638  -51.5119  -18.9650 C   0  0  0  0  0  0  0  0  0  0  0  0
   -0.9118  -47.8287  -14.3500 N   0  0  0  0  0  0  0  0  0  0  0  0
   -1.1078  -48.0555  -13.0104 C   0  0  0  0  0  0  0  0  0  0  0  0
   -1.0102  -49.3584  -12.7349 N   0  0  0  0  0  0  0  0  0  0  0  0
   -0.7510  -50.0235  -13.8724 C   0  0  0  0  0  0  0  0  0  0  0  0
   -0.5770  -51.3581  -14.1600 C   0  0  0  0  0  0  0  0  0  0  0  0
   -0.3454  -51.7330  -15.4560 C   0  0  0  0  0  0  0  0  0  0  0  0
   -0.2890  -50.7896  -16.4461 C   0  0  0  0  0  0  0  0  0  0  0  0
   -0.4596  -49.4675  -16.1673 C   0  0  0  0  0  0  0  0  0  0  0  0
   -0.6954  -49.0370  -14.8697 C   0  0  0  0  0  0  0  0  0  0  0  0
   -0.9083  -46.5157  -14.9389 C   0  0  0  0  0  0  0  0  0  0  0  0
    1.5179  -45.9265  -14.7569 C   0  0  0  0  0  0  0  0  0  0  0  0
    2.4859  -45.1083  -14.1723 C   0  0  0  0  0  0  0  0  0  0  0  0
    2.1780  -44.1060  -13.2996 C   0  0  0  0  0  0  0  0  0  0  0  0
    0.8610  -43.8852  -12.9765 C   0  0  0  0  0  0  0  0  0  0  0  0
   -0.0876  -44.6790  -13.5419 C   0  0  0  0  0  0  0  0  0  0  0  0
    0.2186  -45.7156  -14.4422 C   0  0  0  0  0  0  0  0  0  0  0  0
    3.2072  -46.8125  -16.2400 C   0  0  0  0  0  0  0  0  0  0  0  0
    1.9686  -46.8881  -15.6179 O   0  0  0  0  0  0  0  0  0  0  0  0
 41 42  1  0  0  0
 42 35  1  0  0  0
 35 36  2  0  0  0
 36 37  1  0  0  0
 37 38  2  0  0  0
 38 39  1  0  0  0
 39 40  2  0  0  0
 40 34  1  0  0  0
 34 25  1  0  0  0
 25 26  1  0  0  0
 26 27  2  0  0  0
 27 28  1  0  0  0
 28 29  2  0  0  0
 29 30  1  0  0  0
 30 31  2  0  0  0
 31 32  1  0  0  0
 32 33  2  0  0  0
 31 23  1  0  0  0
 23 24  3  0  0  0
 24  1  1  0  0  0
  1  2  2  0  0  0
  2  3  1  0  0  0
  3 13  1  0  0  0
 13 14  1  0  0  0
 14 15  1  0  0  0
 15 16  1  0  0  0
 16 17  1  0  0  0
 17 18  1  0  0  0
 17 19  1  0  0  0
 19 20  2  0  0  0
 19 21  1  0  0  0
 21 22  2  0  0  0
  3  4  1  0  0  0
  4  5  2  0  0  0
  5  6  1  0  0  0
  6  7  2  0  0  0
  7  8  1  0  0  0
  8  9  1  0  0  0
  8 10  2  0  0  0
 40 35  1  0  0  0
 33 25  1  0  0  0
 10  1  1  0  0  0
 33 28  1  0  0  0
 18 13  1  0  0  0
 10  4  1  0  0  0
  9 11  1  0  0  0
  9 12  1  0  0  0
M  END
> <minimizedAffinity>
-8.11704

> <CNNscore>
0.5397997499

> <CNNaffinity>
7.4548616409

> <CNN_VS>
4.0241322517

> <CNNaffinity_variance>
0.2882582247

$$$$
[H]C([H])=C([H])C(=O)N1C([H])([H])C([H])([H])C([H])([H])[C@@]([H])(n2nc(C#Cc3c([H])c([H])c4nc([H])n(C([H])([H])c5c([H])c([H])c([H])c([H])c5OC([H])([H])[H])c4c3[H])c3c(N([H])[H])nc([H])nc32)C1([H])[H]


 42 47  0  0  0  0  0  0  0  0999 V2000
    0.4426  -51.8229  -21.0895 C   0  0  0  0  0  0  0  0  0  0  0  0
    1.1116  -51.3897  -22.1659 N   0  0  0  0  0  0  0  0  0  0  0  0
    0.8559  -52.1747  -23.2138 N   0  0  0  0  0  0  0  0  0  0  0  0
    0.0104  -53.1533  -22.8686 C   0  0  0  0  0  0  0  0  0  0  0  0
   -0.5727  -54.1962  -23.4989 N   0  0  0  0  0  0  0  0  0  0  0  0
   -1.4009  -55.0050  -22.8098 C   0  0  0  0  0  0  0  0  0  0  0  0
   -1.6648  -54.8002  -21.5003 N   0  0  0  0  0  0  0  0  0  0  0  0
   -1.1067  -53.7755  -20.8348 C   0  0  0  0  0  0  0  0  0  0  0  0
   -1.3651  -53.5311  -19.4495 N   0  0  0  0  0  0  0  0  0  0  0  0
   -0.2607  -52.9443  -21.5274 C   0  0  0  0  0  0  0  0  0  0  0  0
   -0.8219  -54.0005  -18.7085 H   0  0  0  0  0  0  0  0  0  0  0  0
   -2.1277  -52.8578  -19.2077 H   0  0  0  0  0  0  0  0  0  0  0  0
    1.3940  -52.0236  -24.5443 C   0  0  0  0  0  0  0  0  0  0  0  0
    2.1594  -50.7303  -24.6783 C   0  0  0  0  0  0  0  0  0  0  0  0
    2.6694  -50.5889  -26.0881 C   0  0  0  0  0  0  0  0  0  0  0  0
    2.3374  -51.7828  -26.9563 C   0  0  0  0  0  0  0  0  0  0  0  0
    0.9361  -52.1174  -26.8703 N   0  0  0  0  0  0  0  0  0  0  0  0
    0.2741  -51.9872  -25.5932 C   0  0  0  0  0  0  0  0  0  0  0  0
    0.2240  -52.5606  -27.9949 C   0  0  0  0  0  0  0  0  0  0  0  0
    0.7797  -52.6869  -29.1268 O   0  0  0  0  0  0  0  0  0  0  0  0
   -1.1889  -52.8897  -27.8858 C   0  0  0  0  0  0  0  0  0  0  0  0
   -2.0189  -52.5453  -28.8442 C   0  0  0  0  0  0  0  0  0  0  0  0
    0.3892  -50.8474  -18.6347 C   0  0  0  0  0  0  0  0  0  0  0  0
    0.4211  -51.2861  -19.7575 C   0  0  0  0  0  0  0  0  0  0  0  0
    2.2160  -48.2789  -14.8685 N   0  0  0  0  0  0  0  0  0  0  0  0
    1.6296  -48.0788  -13.6436 C   0  0  0  0  0  0  0  0  0  0  0  0
    0.4549  -48.7101  -13.5758 N   0  0  0  0  0  0  0  0  0  0  0  0
    0.2326  -49.3379  -14.7418 C   0  0  0  0  0  0  0  0  0  0  0  0
   -0.8104  -50.1035  -15.2112 C   0  0  0  0  0  0  0  0  0  0  0  0
   -0.7513  -50.5945  -16.4876 C   0  0  0  0  0  0  0  0  0  0  0  0
    0.3317  -50.3242  -17.2800 C   0  0  0  0  0  0  0  0  0  0  0  0
    1.3670  -49.5680  -16.8205 C   0  0  0  0  0  0  0  0  0  0  0  0
    1.3550  -49.0488  -15.5341 C   0  0  0  0  0  0  0  0  0  0  0  0
    3.5123  -47.7626  -15.2200 C   0  0  0  0  0  0  0  0  0  0  0  0
    3.7954  -46.8661  -17.5402 C   0  0  0  0  0  0  0  0  0  0  0  0
    3.6719  -45.7725  -18.3986 C   0  0  0  0  0  0  0  0  0  0  0  0
    3.1752  -44.5678  -17.9947 C   0  0  0  0  0  0  0  0  0  0  0  0
    2.7769  -44.4155  -16.6887 C   0  0  0  0  0  0  0  0  0  0  0  0
    2.8949  -45.4768  -15.8465 C   0  0  0  0  0  0  0  0  0  0  0  0
    3.4062  -46.7229  -16.2519 C   0  0  0  0  0  0  0  0  0  0  0  0
    3.9280  -48.4803  -19.3333 C   0  0  0  0  0  0  0  0  0  0  0  0
    4.3043  -48.0140  -18.0812 O   0  0  0  0  0  0  0  0  0  0  0  0
 41 42  1  0  0  0
 42 35  1  0  0  0
 35 36  2  0  0  0
 36 37  1  0  0  0
 37 38  2  0  0  0
 38 39  1  0  0  0
 39 40  2  0  0  0
 40 34  1  0  0  0
 34 25  1  0  0  0
 25 26  1  0  0  0
 26 27  2  0  0  0
 27 28  1  0  0  0
 28 29  2  0  0  0
 29 30  1  0  0  0
 30 31  2  0  0  0
 31 32  1  0  0  0
 32 33  2  0  0  0
 31 23  1  0  0  0
 23 24  3  0  0  0
 24  1  1  0  0  0
  1  2  2  0  0  0
  2  3  1  0  0  0
  3 13  1  0  0  0
 13 14  1  0  0  0
 14 15  1  0  0  0
 15 16  1  0  0  0
 16 17  1  0  0  0
 17 18  1  0  0  0
 17 19  1  0  0  0
 19 20  2  0  0  0
 19 21  1  0  0  0
 21 22  2  0  0  0
  3  4  1  0  0  0
  4  5  2  0  0  0
  5  6  1  0  0  0
  6  7  2  0  0  0
  7  8  1  0  0  0
  8  9  1  0  0  0
  8 10  2  0  0  0
 40 35  1  0  0  0
 33 25  1  0  0  0
 10  1  1  0  0  0
 33 28  1  0  0  0
 18 13  1  0  0  0
 10  4  1  0  0  0
  9 11  1  0  0  0
  9 12  1  0  0  0
M  END
> <minimizedAffinity>
-8.90741

> <CNNscore>
0.5256970525

> <CNNaffinity>
7.5692100525

> <CNN_VS>
3.9791114330

> <CNNaffinity_variance>
0.3121355176

$$$$
[H]C([H])=C([H])C(=O)N1C([H])([H])C([H])([H])C([H])([H])[C@@]([H])(n2nc(C#Cc3c([H])c([H])c4nc([H])n(C([H])([H])c5c([H])c([H])c([H])c([H])c5OC([H])([H])[H])c4c3[H])c3c(N([H])[H])nc([H])nc32)C1([H])[H]


 42 47  0  0  0  0  0  0  0  0999 V2000
    0.5400  -52.1683  -21.2136 C   0  0  0  0  0  0  0  0  0  0  0  0
    1.2957  -51.6515  -22.1912 N   0  0  0  0  0  0  0  0  0  0  0  0
    1.0630  -52.2897  -23.3394 N   0  0  0  0  0  0  0  0  0  0  0  0
    0.1469  -53.2496  -23.1625 C   0  0  0  0  0  0  0  0  0  0  0  0
   -0.4514  -54.1731  -23.9460 N   0  0  0  0  0  0  0  0  0  0  0  0
   -1.3621  -55.0066  -23.4067 C   0  0  0  0  0  0  0  0  0  0  0  0
   -1.6941  -54.9432  -22.0982 N   0  0  0  0  0  0  0  0  0  0  0  0
   -1.1239  -54.0404  -21.2834 C   0  0  0  0  0  0  0  0  0  0  0  0
   -1.4529  -53.9471  -19.8947 N   0  0  0  0  0  0  0  0  0  0  0  0
   -0.1940  -53.1853  -21.8225 C   0  0  0  0  0  0  0  0  0  0  0  0
   -0.9818  -54.5330  -19.1881 H   0  0  0  0  0  0  0  0  0  0  0  0
   -2.1919  -53.2624  -19.6142 H   0  0  0  0  0  0  0  0  0  0  0  0
    1.6886  -52.0143  -24.6104 C   0  0  0  0  0  0  0  0  0  0  0  0
    2.6121  -53.1360  -25.0169 C   0  0  0  0  0  0  0  0  0  0  0  0
    3.2761  -52.7948  -26.3247 C   0  0  0  0  0  0  0  0  0  0  0  0
    2.8040  -51.4764  -26.8978 C   0  0  0  0  0  0  0  0  0  0  0  0
    2.8735  -50.4240  -25.9126 N   0  0  0  0  0  0  0  0  0  0  0  0
    2.5411  -50.7399  -24.5429 C   0  0  0  0  0  0  0  0  0  0  0  0
    3.2531  -49.1205  -26.2665 C   0  0  0  0  0  0  0  0  0  0  0  0
    3.5472  -48.8145  -27.4605 O   0  0  0  0  0  0  0  0  0  0  0  0
    3.3190  -48.0758  -25.2562 C   0  0  0  0  0  0  0  0  0  0  0  0
    3.4370  -46.8187  -25.6189 C   0  0  0  0  0  0  0  0  0  0  0  0
    0.3852  -51.4816  -18.6670 C   0  0  0  0  0  0  0  0  0  0  0  0
    0.4659  -51.7932  -19.8292 C   0  0  0  0  0  0  0  0  0  0  0  0
    2.2776  -50.1407  -14.3381 N   0  0  0  0  0  0  0  0  0  0  0  0
    1.5856  -49.8483  -13.1892 C   0  0  0  0  0  0  0  0  0  0  0  0
    0.2725  -49.9968  -13.3804 N   0  0  0  0  0  0  0  0  0  0  0  0
    0.0606  -50.3861  -14.6480 C   0  0  0  0  0  0  0  0  0  0  0  0
   -1.0806  -50.6588  -15.3674 C   0  0  0  0  0  0  0  0  0  0  0  0
   -0.9657  -51.0173  -16.6835 C   0  0  0  0  0  0  0  0  0  0  0  0
    0.2687  -51.1013  -17.2691 C   0  0  0  0  0  0  0  0  0  0  0  0
    1.4014  -50.8335  -16.5620 C   0  0  0  0  0  0  0  0  0  0  0  0
    1.3378  -50.4675  -15.2253 C   0  0  0  0  0  0  0  0  0  0  0  0
    3.7137  -50.1180  -14.4255 C   0  0  0  0  0  0  0  0  0  0  0  0
    4.0424  -47.7079  -15.0172 C   0  0  0  0  0  0  0  0  0  0  0  0
    4.6390  -46.4898  -14.6880 C   0  0  0  0  0  0  0  0  0  0  0  0
    5.4076  -46.3200  -13.5737 C   0  0  0  0  0  0  0  0  0  0  0  0
    5.6083  -47.3886  -12.7338 C   0  0  0  0  0  0  0  0  0  0  0  0
    5.0305  -48.5788  -13.0487 C   0  0  0  0  0  0  0  0  0  0  0  0
    4.2369  -48.7652  -14.1950 C   0  0  0  0  0  0  0  0  0  0  0  0
    3.8390  -48.0215  -17.4045 C   0  0  0  0  0  0  0  0  0  0  0  0
    3.2938  -47.7330  -16.1609 O   0  0  0  0  0  0  0  0  0  0  0  0
 41 42  1  0  0  0
 42 35  1  0  0  0
 35 36  2  0  0  0
 36 37  1  0  0  0
 37 38  2  0  0  0
 38 39  1  0  0  0
 39 40  2  0  0  0
 40 34  1  0  0  0
 34 25  1  0  0  0
 25 26  1  0  0  0
 26 27  2  0  0  0
 27 28  1  0  0  0
 28 29  2  0  0  0
 29 30  1  0  0  0
 30 31  2  0  0  0
 31 32  1  0  0  0
 32 33  2  0  0  0
 31 23  1  0  0  0
 23 24  3  0  0  0
 24  1  1  0  0  0
  1  2  2  0  0  0
  2  3  1  0  0  0
  3 13  1  0  0  0
 13 14  1  0  0  0
 14 15  1  0  0  0
 15 16  1  0  0  0
 16 17  1  0  0  0
 17 18  1  0  0  0
 17 19  1  0  0  0
 19 20  2  0  0  0
 19 21  1  0  0  0
 21 22  2  0  0  0
  3  4  1  0  0  0
  4  5  2  0  0  0
  5  6  1  0  0  0
  6  7  2  0  0  0
  7  8  1  0  0  0
  8  9  1  0  0  0
  8 10  2  0  0  0
 40 35  1  0  0  0
 33 25  1  0  0  0
 10  1  1  0  0  0
 33 28  1  0  0  0
 18 13  1  0  0  0
 10  4  1  0  0  0
  9 11  1  0  0  0
  9 12  1  0  0  0
M  END
> <minimizedAffinity>
-8.35571

> <CNNscore>
0.5126458406

> <CNNaffinity>
7.3990135193

> <CNN_VS>
3.7930734158

> <CNNaffinity_variance>
0.3032242656

$$$$
[H]C([H])=C([H])C(=O)N1C([H])([H])C([H])([H])C([H])([H])[C@@]([H])(n2nc(C#Cc3c([H])c([H])c4nc([H])n(C([H])([H])c5c([H])c([H])c([H])c([H])c5OC([H])([H])[H])c4c3[H])c3c(N([H])[H])nc([H])nc32)C1([H])[H]


 42 47  0  0  0  0  0  0  0  0999 V2000
    0.4164  -51.8502  -20.4829 C   0  0  0  0  0  0  0  0  0  0  0  0
    1.2310  -51.2859  -21.3838 N   0  0  0  0  0  0  0  0  0  0  0  0
    1.1154  -51.9045  -22.5602 N   0  0  0  0  0  0  0  0  0  0  0  0
    0.2221  -52.8981  -22.4794 C   0  0  0  0  0  0  0  0  0  0  0  0
   -0.2775  -53.8224  -23.3285 N   0  0  0  0  0  0  0  0  0  0  0  0
   -1.1995  -54.6980  -22.8834 C   0  0  0  0  0  0  0  0  0  0  0  0
   -1.6395  -54.6762  -21.6058 N   0  0  0  0  0  0  0  0  0  0  0  0
   -1.1698  -53.7742  -20.7283 C   0  0  0  0  0  0  0  0  0  0  0  0
   -1.6145  -53.7244  -19.3699 N   0  0  0  0  0  0  0  0  0  0  0  0
   -0.2294  -52.8765  -21.1711 C   0  0  0  0  0  0  0  0  0  0  0  0
   -1.1826  -54.3107  -18.6390 H   0  0  0  0  0  0  0  0  0  0  0  0
   -2.3974  -53.0713  -19.1374 H   0  0  0  0  0  0  0  0  0  0  0  0
    1.8330  -51.5789  -23.7693 C   0  0  0  0  0  0  0  0  0  0  0  0
    2.7706  -52.6936  -24.1627 C   0  0  0  0  0  0  0  0  0  0  0  0
    3.5297  -52.3011  -25.4026 C   0  0  0  0  0  0  0  0  0  0  0  0
    3.1143  -50.9506  -25.9439 C   0  0  0  0  0  0  0  0  0  0  0  0
    3.1252  -49.9467  -24.9071 N   0  0  0  0  0  0  0  0  0  0  0  0
    2.6927  -50.3215  -23.5809 C   0  0  0  0  0  0  0  0  0  0  0  0
    3.5435  -48.6337  -25.1705 C   0  0  0  0  0  0  0  0  0  0  0  0
    3.9253  -48.2763  -26.3248 O   0  0  0  0  0  0  0  0  0  0  0  0
    3.5491  -47.6385  -24.1093 C   0  0  0  0  0  0  0  0  0  0  0  0
    3.0455  -46.4447  -24.3266 C   0  0  0  0  0  0  0  0  0  0  0  0
    0.0584  -51.2094  -17.9448 C   0  0  0  0  0  0  0  0  0  0  0  0
    0.2161  -51.5102  -19.1018 C   0  0  0  0  0  0  0  0  0  0  0  0
   -1.2701  -48.0850  -14.3963 N   0  0  0  0  0  0  0  0  0  0  0  0
   -1.2239  -48.3051  -13.0421 C   0  0  0  0  0  0  0  0  0  0  0  0
   -0.7319  -49.5183  -12.7794 N   0  0  0  0  0  0  0  0  0  0  0  0
   -0.4430  -50.1292  -13.9398 C   0  0  0  0  0  0  0  0  0  0  0  0
    0.0595  -51.3736  -14.2453 C   0  0  0  0  0  0  0  0  0  0  0  0
    0.2210  -51.7197  -15.5598 C   0  0  0  0  0  0  0  0  0  0  0  0
   -0.1143  -50.8367  -16.5506 C   0  0  0  0  0  0  0  0  0  0  0  0
   -0.6111  -49.6038  -16.2542 C   0  0  0  0  0  0  0  0  0  0  0  0
   -0.7919  -49.2054  -14.9377 C   0  0  0  0  0  0  0  0  0  0  0  0
   -1.7084  -46.8464  -14.9830 C   0  0  0  0  0  0  0  0  0  0  0  0
    0.2590  -45.4430  -14.3298 C   0  0  0  0  0  0  0  0  0  0  0  0
    0.7251  -44.3303  -13.6278 C   0  0  0  0  0  0  0  0  0  0  0  0
   -0.1017  -43.4878  -12.9439 C   0  0  0  0  0  0  0  0  0  0  0  0
   -1.4527  -43.7376  -12.9406 C   0  0  0  0  0  0  0  0  0  0  0  0
   -1.9139  -44.8205  -13.6220 C   0  0  0  0  0  0  0  0  0  0  0  0
   -1.0706  -45.6960  -14.3298 C   0  0  0  0  0  0  0  0  0  0  0  0
    2.1858  -46.9008  -14.2972 C   0  0  0  0  0  0  0  0  0  0  0  0
    1.1994  -46.1973  -14.9747 O   0  0  0  0  0  0  0  0  0  0  0  0
 41 42  1  0  0  0
 42 35  1  0  0  0
 35 36  2  0  0  0
 36 37  1  0  0  0
 37 38  2  0  0  0
 38 39  1  0  0  0
 39 40  2  0  0  0
 40 34  1  0  0  0
 34 25  1  0  0  0
 25 26  1  0  0  0
 26 27  2  0  0  0
 27 28  1  0  0  0
 28 29  2  0  0  0
 29 30  1  0  0  0
 30 31  2  0  0  0
 31 32  1  0  0  0
 32 33  2  0  0  0
 31 23  1  0  0  0
 23 24  3  0  0  0
 24  1  1  0  0  0
  1  2  2  0  0  0
  2  3  1  0  0  0
  3 13  1  0  0  0
 13 14  1  0  0  0
 14 15  1  0  0  0
 15 16  1  0  0  0
 16 17  1  0  0  0
 17 18  1  0  0  0
 17 19  1  0  0  0
 19 20  2  0  0  0
 19 21  1  0  0  0
 21 22  2  0  0  0
  3  4  1  0  0  0
  4  5  2  0  0  0
  5  6  1  0  0  0
  6  7  2  0  0  0
  7  8  1  0  0  0
  8  9  1  0  0  0
  8 10  2  0  0  0
 40 35  1  0  0  0
 33 25  1  0  0  0
 10  1  1  0  0  0
 33 28  1  0  0  0
 18 13  1  0  0  0
 10  4  1  0  0  0
  9 11  1  0  0  0
  9 12  1  0  0  0
M  END
> <minimizedAffinity>
-7.63191

> <CNNscore>
0.4467969537

> <CNNaffinity>
7.2598252296

> <CNN_VS>
3.2436678410

> <CNNaffinity_variance>
0.2956503034

$$$$
[H]C1=C([H])C([H])(N([H])C(=O)N([H])c2nc3c([H])c([H])c(N([H])C(=O)c4c([H])c([H])c([H])c(C#N)c4[H])c([H])c3s2)C([H])([H])C([H])([H])N(C(=O)C([H])([H])C([H])([H])C([H])([H])[H])C1([H])[H]


 39 42  0  0  0  0  0  0  0  0999 V2000
    2.3746  -48.4494  -20.5853 C   0  0  0  0  0  0  0  0  0  0  0  0
    2.3339  -49.4390  -21.4479 N   0  0  0  0  0  0  0  0  0  0  0  0
    2.6742  -49.2523  -22.6898 C   0  0  0  0  0  0  0  0  0  0  0  0
    2.6770  -50.2151  -23.7100 C   0  0  0  0  0  0  0  0  0  0  0  0
    3.0501  -49.9078  -24.9672 C   0  0  0  0  0  0  0  0  0  0  0  0
    3.4598  -48.6312  -25.3639 C   0  0  0  0  0  0  0  0  0  0  0  0
    3.4582  -47.6878  -24.3680 C   0  0  0  0  0  0  0  0  0  0  0  0
    3.0712  -47.9975  -23.0552 C   0  0  0  0  0  0  0  0  0  0  0  0
    2.9307  -47.1507  -21.5758 S   0  0  0  0  0  0  0  0  0  0  0  0
    0.8235  -49.4135  -17.2661 N   0  0  0  0  0  0  0  0  0  0  0  0
    1.1662  -49.4068  -18.6460 C   0  0  0  0  0  0  0  0  0  0  0  0
    0.6840  -50.2808  -19.4186 O   0  0  0  0  0  0  0  0  0  0  0  0
    2.0449  -48.4344  -19.1842 N   0  0  0  0  0  0  0  0  0  0  0  0
    1.2004  -48.7114  -16.6039 H   0  0  0  0  0  0  0  0  0  0  0  0
    2.4713  -47.6946  -18.5979 H   0  0  0  0  0  0  0  0  0  0  0  0
   -2.6618  -51.6408  -13.1804 C   0  0  0  0  0  0  0  0  0  0  0  0
   -2.3289  -51.9853  -12.0062 O   0  0  0  0  0  0  0  0  0  0  0  0
   -1.6738  -51.2236  -14.0794 N   0  0  0  0  0  0  0  0  0  0  0  0
   -0.3215  -51.2156  -13.5925 C   0  0  0  0  0  0  0  0  0  0  0  0
    0.5657  -51.7020  -14.6706 C   0  0  0  0  0  0  0  0  0  0  0  0
    0.6613  -51.3994  -15.9432 C   0  0  0  0  0  0  0  0  0  0  0  0
   -0.0940  -50.4500  -16.7690 C   0  0  0  0  0  0  0  0  0  0  0  0
   -1.2061  -49.7860  -15.9952 C   0  0  0  0  0  0  0  0  0  0  0  0
   -2.1143  -50.8437  -15.3961 C   0  0  0  0  0  0  0  0  0  0  0  0
   -4.0795  -51.6822  -13.5860 C   0  0  0  0  0  0  0  0  0  0  0  0
   -4.8873  -53.4617  -15.0797 C   0  0  0  0  0  0  0  0  0  0  0  0
   -4.5484  -53.1229  -13.6473 C   0  0  0  0  0  0  0  0  0  0  0  0
    3.8435  -48.4199  -26.6939 N   0  0  0  0  0  0  0  0  0  0  0  0
    3.4043  -47.4078  -27.5388 C   0  0  0  0  0  0  0  0  0  0  0  0
    2.5789  -46.5472  -27.1847 O   0  0  0  0  0  0  0  0  0  0  0  0
    4.5488  -49.1036  -27.1144 H   0  0  0  0  0  0  0  0  0  0  0  0
    3.9071  -47.3109  -28.9175 C   0  0  0  0  0  0  0  0  0  0  0  0
    3.1558  -46.5475  -29.8124 C   0  0  0  0  0  0  0  0  0  0  0  0
    3.5793  -46.4161  -31.1097 C   0  0  0  0  0  0  0  0  0  0  0  0
    4.7525  -47.0522  -31.4950 C   0  0  0  0  0  0  0  0  0  0  0  0
    5.4954  -47.8030  -30.6223 C   0  0  0  0  0  0  0  0  0  0  0  0
    5.0670  -47.9317  -29.3241 C   0  0  0  0  0  0  0  0  0  0  0  0
    6.7127  -48.4620  -31.0263 C   0  0  0  0  0  0  0  0  0  0  0  0
    7.6878  -48.9854  -31.3663 N   0  0  0  0  0  0  0  0  0  0  0  0
 26 27  1  0  0  0
 27 25  1  0  0  0
 25 16  1  0  0  0
 16 17  2  0  0  0
 16 18  1  0  0  0
 18 19  1  0  0  0
 19 20  1  0  0  0
 20 21  2  0  0  0
 21 22  1  0  0  0
 22 23  1  0  0  0
 23 24  1  0  0  0
 22 10  1  0  0  0
 10 11  1  0  0  0
 11 12  2  0  0  0
 11 13  1  0  0  0
 13  1  1  0  0  0
  1  2  2  0  0  0
  2  3  1  0  0  0
  3  4  2  0  0  0
  4  5  1  0  0  0
  5  6  2  0  0  0
  6 28  1  0  0  0
 28 29  1  0  0  0
 29 30  2  0  0  0
 29 32  1  0  0  0
 32 33  2  0  0  0
 33 34  1  0  0  0
 34 35  2  0  0  0
 35 36  1  0  0  0
 36 37  2  0  0  0
 36 38  1  0  0  0
 38 39  3  0  0  0
  6  7  1  0  0  0
  7  8  2  0  0  0
  8  9  1  0  0  0
 24 18  1  0  0  0
  9  1  1  0  0  0
  8  3  1  0  0  0
 37 32  1  0  0  0
 10 14  1  0  0  0
 13 15  1  0  0  0
 28 31  1  0  0  0
M  END
> <minimizedAffinity>
-6.21546

> <CNNscore>
0.3524882495

> <CNNaffinity>
5.8259944916

> <CNN_VS>
2.0535945892

> <CNNaffinity_variance>
0.5329890847

$$$$
[H]C1=C([H])C([H])(N([H])C(=O)N([H])c2nc3c([H])c([H])c(N([H])C(=O)c4c([H])c([H])c([H])c(C#N)c4[H])c([H])c3s2)C([H])([H])C([H])([H])N(C(=O)C([H])([H])C([H])([H])C([H])([H])[H])C1([H])[H]


 39 42  0  0  0  0  0  0  0  0999 V2000
    6.9310  -50.6953  -23.0503 C   0  0  0  0  0  0  0  0  0  0  0  0
    5.7205  -51.1913  -23.1681 N   0  0  0  0  0  0  0  0  0  0  0  0
    4.8818  -51.1397  -22.1748 C   0  0  0  0  0  0  0  0  0  0  0  0
    3.5669  -51.6281  -22.1642 C   0  0  0  0  0  0  0  0  0  0  0  0
    2.7844  -51.5202  -21.0732 C   0  0  0  0  0  0  0  0  0  0  0  0
    3.1991  -50.9257  -19.8776 C   0  0  0  0  0  0  0  0  0  0  0  0
    4.4847  -50.4469  -19.8854 C   0  0  0  0  0  0  0  0  0  0  0  0
    5.3081  -50.5544  -21.0166 C   0  0  0  0  0  0  0  0  0  0  0  0
    6.9069  -50.1076  -21.4284 S   0  0  0  0  0  0  0  0  0  0  0  0
    9.1186  -49.5284  -25.9149 N   0  0  0  0  0  0  0  0  0  0  0  0
    8.0698  -49.5979  -24.9573 C   0  0  0  0  0  0  0  0  0  0  0  0
    7.1717  -48.7111  -24.9419 O   0  0  0  0  0  0  0  0  0  0  0  0
    8.0044  -50.6479  -24.0083 N   0  0  0  0  0  0  0  0  0  0  0  0
    9.8716  -50.2389  -25.9561 H   0  0  0  0  0  0  0  0  0  0  0  0
    8.7139  -51.4017  -23.9730 H   0  0  0  0  0  0  0  0  0  0  0  0
    6.9051  -44.6060  -28.0760 C   0  0  0  0  0  0  0  0  0  0  0  0
    5.7476  -44.4484  -28.5695 O   0  0  0  0  0  0  0  0  0  0  0  0
    7.3222  -45.8877  -27.6997 N   0  0  0  0  0  0  0  0  0  0  0  0
    6.3837  -46.9568  -27.9050 C   0  0  0  0  0  0  0  0  0  0  0  0
    7.1238  -48.1406  -28.3917 C   0  0  0  0  0  0  0  0  0  0  0  0
    8.2231  -48.7277  -27.9829 C   0  0  0  0  0  0  0  0  0  0  0  0
    9.1302  -48.4128  -26.8731 C   0  0  0  0  0  0  0  0  0  0  0  0
    8.7283  -47.1487  -26.1542 C   0  0  0  0  0  0  0  0  0  0  0  0
    8.6453  -46.0018  -27.1444 C   0  0  0  0  0  0  0  0  0  0  0  0
    7.7966  -43.4435  -27.9034 C   0  0  0  0  0  0  0  0  0  0  0  0
    8.9641  -43.6244  -30.0609 C   0  0  0  0  0  0  0  0  0  0  0  0
    8.0215  -42.7723  -29.2444 C   0  0  0  0  0  0  0  0  0  0  0  0
    2.3014  -50.8495  -18.8057 N   0  0  0  0  0  0  0  0  0  0  0  0
    1.5303  -49.7532  -18.4388 C   0  0  0  0  0  0  0  0  0  0  0  0
    1.5655  -48.6711  -19.0513 O   0  0  0  0  0  0  0  0  0  0  0  0
    2.1893  -51.7213  -18.1983 H   0  0  0  0  0  0  0  0  0  0  0  0
    0.6217  -49.8280  -17.2848 C   0  0  0  0  0  0  0  0  0  0  0  0
    0.8378  -48.9169  -16.2497 C   0  0  0  0  0  0  0  0  0  0  0  0
    0.0179  -48.9353  -15.1511 C   0  0  0  0  0  0  0  0  0  0  0  0
   -1.0104  -49.8680  -15.1032 C   0  0  0  0  0  0  0  0  0  0  0  0
   -1.2289  -50.7652  -16.1152 C   0  0  0  0  0  0  0  0  0  0  0  0
   -0.4050  -50.7428  -17.2134 C   0  0  0  0  0  0  0  0  0  0  0  0
   -2.2975  -51.7320  -16.0615 C   0  0  0  0  0  0  0  0  0  0  0  0
   -3.1491  -52.5143  -16.0041 N   0  0  0  0  0  0  0  0  0  0  0  0
 26 27  1  0  0  0
 27 25  1  0  0  0
 25 16  1  0  0  0
 16 17  2  0  0  0
 16 18  1  0  0  0
 18 19  1  0  0  0
 19 20  1  0  0  0
 20 21  2  0  0  0
 21 22  1  0  0  0
 22 23  1  0  0  0
 23 24  1  0  0  0
 22 10  1  0  0  0
 10 11  1  0  0  0
 11 12  2  0  0  0
 11 13  1  0  0  0
 13  1  1  0  0  0
  1  2  2  0  0  0
  2  3  1  0  0  0
  3  4  2  0  0  0
  4  5  1  0  0  0
  5  6  2  0  0  0
  6 28  1  0  0  0
 28 29  1  0  0  0
 29 30  2  0  0  0
 29 32  1  0  0  0
 32 33  2  0  0  0
 33 34  1  0  0  0
 34 35  2  0  0  0
 35 36  1  0  0  0
 36 37  2  0  0  0
 36 38  1  0  0  0
 38 39  3  0  0  0
  6  7  1  0  0  0
  7  8  2  0  0  0
  8  9  1  0  0  0
 24 18  1  0  0  0
  9  1  1  0  0  0
  8  3  1  0  0  0
 37 32  1  0  0  0
 10 14  1  0  0  0
 13 15  1  0  0  0
 28 31  1  0  0  0
M  END
> <minimizedAffinity>
-5.61417

> <CNNscore>
0.3269754946

> <CNNaffinity>
5.7703065872

> <CNN_VS>
1.8867489100

> <CNNaffinity_variance>
0.5331712365

$$$$
[H]C1=C([H])C([H])(N([H])C(=O)N([H])c2nc3c([H])c([H])c(N([H])C(=O)c4c([H])c([H])c([H])c(C#N)c4[H])c([H])c3s2)C([H])([H])C([H])([H])N(C(=O)C([H])([H])C([H])([H])C([H])([H])[H])C1([H])[H]


 39 42  0  0  0  0  0  0  0  0999 V2000
    2.7265  -47.3196  -22.1091 C   0  0  0  0  0  0  0  0  0  0  0  0
    3.3073  -46.9358  -20.9953 N   0  0  0  0  0  0  0  0  0  0  0  0
    3.1063  -47.5822  -19.8842 C   0  0  0  0  0  0  0  0  0  0  0  0
    3.6592  -47.2823  -18.6304 C   0  0  0  0  0  0  0  0  0  0  0  0
    3.3792  -48.0242  -17.5416 C   0  0  0  0  0  0  0  0  0  0  0  0
    2.5316  -49.1360  -17.5584 C   0  0  0  0  0  0  0  0  0  0  0  0
    1.9897  -49.4316  -18.7835 C   0  0  0  0  0  0  0  0  0  0  0  0
    2.2748  -48.6651  -19.9239 C   0  0  0  0  0  0  0  0  0  0  0  0
    1.8263  -48.6908  -21.5742 S   0  0  0  0  0  0  0  0  0  0  0  0
    3.8405  -46.7268  -25.6813 N   0  0  0  0  0  0  0  0  0  0  0  0
    3.7397  -47.2655  -24.3693 C   0  0  0  0  0  0  0  0  0  0  0  0
    4.4914  -48.2175  -24.0202 O   0  0  0  0  0  0  0  0  0  0  0  0
    2.8072  -46.7569  -23.4316 N   0  0  0  0  0  0  0  0  0  0  0  0
    3.2397  -45.9456  -26.0011 H   0  0  0  0  0  0  0  0  0  0  0  0
    2.1647  -45.9781  -23.6627 H   0  0  0  0  0  0  0  0  0  0  0  0
    7.1715  -46.4418  -30.4377 C   0  0  0  0  0  0  0  0  0  0  0  0
    6.7739  -46.3015  -31.6338 O   0  0  0  0  0  0  0  0  0  0  0  0
    6.2293  -46.6035  -29.4158 N   0  0  0  0  0  0  0  0  0  0  0  0
    4.8465  -46.5976  -29.8074 C   0  0  0  0  0  0  0  0  0  0  0  0
    4.1338  -47.6260  -29.0198 C   0  0  0  0  0  0  0  0  0  0  0  0
    4.1228  -47.9115  -27.7396 C   0  0  0  0  0  0  0  0  0  0  0  0
    4.8287  -47.2991  -26.6081 C   0  0  0  0  0  0  0  0  0  0  0  0
    5.7702  -46.2069  -27.0519 C   0  0  0  0  0  0  0  0  0  0  0  0
    6.7423  -46.7562  -28.0795 C   0  0  0  0  0  0  0  0  0  0  0  0
    8.6154  -46.4328  -30.1358 C   0  0  0  0  0  0  0  0  0  0  0  0
    9.0984  -48.8218  -30.4675 C   0  0  0  0  0  0  0  0  0  0  0  0
    9.3261  -47.4360  -31.0234 C   0  0  0  0  0  0  0  0  0  0  0  0
    2.3186  -49.8501  -16.3729 N   0  0  0  0  0  0  0  0  0  0  0  0
    3.0528  -50.9346  -15.9082 C   0  0  0  0  0  0  0  0  0  0  0  0
    4.0181  -51.4101  -16.5322 O   0  0  0  0  0  0  0  0  0  0  0  0
    1.5080  -49.5365  -15.7515 H   0  0  0  0  0  0  0  0  0  0  0  0
    2.7106  -51.5802  -14.6319 C   0  0  0  0  0  0  0  0  0  0  0  0
    3.7734  -51.9658  -13.8133 C   0  0  0  0  0  0  0  0  0  0  0  0
    3.5149  -52.5665  -12.6084 C   0  0  0  0  0  0  0  0  0  0  0  0
    2.1922  -52.7738  -12.2378 C   0  0  0  0  0  0  0  0  0  0  0  0
    1.1439  -52.3979  -13.0357 C   0  0  0  0  0  0  0  0  0  0  0  0
    1.4080  -51.7967  -14.2416 C   0  0  0  0  0  0  0  0  0  0  0  0
   -0.2278  -52.6151  -12.6473 C   0  0  0  0  0  0  0  0  0  0  0  0
   -1.3287  -52.7752  -12.3267 N   0  0  0  0  0  0  0  0  0  0  0  0
 26 27  1  0  0  0
 27 25  1  0  0  0
 25 16  1  0  0  0
 16 17  2  0  0  0
 16 18  1  0  0  0
 18 19  1  0  0  0
 19 20  1  0  0  0
 20 21  2  0  0  0
 21 22  1  0  0  0
 22 23  1  0  0  0
 23 24  1  0  0  0
 22 10  1  0  0  0
 10 11  1  0  0  0
 11 12  2  0  0  0
 11 13  1  0  0  0
 13  1  1  0  0  0
  1  2  2  0  0  0
  2  3  1  0  0  0
  3  4  2  0  0  0
  4  5  1  0  0  0
  5  6  2  0  0  0
  6 28  1  0  0  0
 28 29  1  0  0  0
 29 30  2  0  0  0
 29 32  1  0  0  0
 32 33  2  0  0  0
 33 34  1  0  0  0
 34 35  2  0  0  0
 35 36  1  0  0  0
 36 37  2  0  0  0
 36 38  1  0  0  0
 38 39  3  0  0  0
  6  7  1  0  0  0
  7  8  2  0  0  0
  8  9  1  0  0  0
 24 18  1  0  0  0
  9  1  1  0  0  0
  8  3  1  0  0  0
 37 32  1  0  0  0
 10 14  1  0  0  0
 13 15  1  0  0  0
 28 31  1  0  0  0
M  END
> <minimizedAffinity>
-5.43238

> <CNNscore>
0.3091236353

> <CNNaffinity>
5.4520173073

> <CNN_VS>
1.6853474379

> <CNNaffinity_variance>
0.4218984246

$$$$
[H]C1=C([H])C([H])(N([H])C(=O)N([H])c2nc3c([H])c([H])c(N([H])C(=O)c4c([H])c([H])c([H])c(C#N)c4[H])c([H])c3s2)C([H])([H])C([H])([H])N(C(=O)C([H])([H])C([H])([H])C([H])([H])[H])C1([H])[H]


 39 42  0  0  0  0  0  0  0  0999 V2000
    4.1011  -49.3893  -25.2694 C   0  0  0  0  0  0  0  0  0  0  0  0
    4.2602  -50.4566  -24.5207 N   0  0  0  0  0  0  0  0  0  0  0  0
    3.7823  -50.4971  -23.3112 C   0  0  0  0  0  0  0  0  0  0  0  0
    3.8800  -51.5666  -22.4088 C   0  0  0  0  0  0  0  0  0  0  0  0
    3.3450  -51.4976  -21.1746 C   0  0  0  0  0  0  0  0  0  0  0  0
    2.6585  -50.3806  -20.6887 C   0  0  0  0  0  0  0  0  0  0  0  0
    2.5614  -49.3334  -21.5695 C   0  0  0  0  0  0  0  0  0  0  0  0
    3.1154  -49.3949  -22.8573 C   0  0  0  0  0  0  0  0  0  0  0  0
    3.2153  -48.3541  -24.2109 S   0  0  0  0  0  0  0  0  0  0  0  0
    6.2876  -48.3241  -28.1741 N   0  0  0  0  0  0  0  0  0  0  0  0
    5.8278  -48.5870  -26.8546 C   0  0  0  0  0  0  0  0  0  0  0  0
    6.5708  -48.3323  -25.8665 O   0  0  0  0  0  0  0  0  0  0  0  0
    4.5428  -49.1338  -26.6154 N   0  0  0  0  0  0  0  0  0  0  0  0
    5.7044  -48.5206  -29.0075 H   0  0  0  0  0  0  0  0  0  0  0  0
    3.8912  -49.3638  -27.3869 H   0  0  0  0  0  0  0  0  0  0  0  0
   10.3196  -45.6215  -31.3740 C   0  0  0  0  0  0  0  0  0  0  0  0
   10.8160  -46.0277  -32.4681 O   0  0  0  0  0  0  0  0  0  0  0  0
    9.4358  -46.4490  -30.6723 N   0  0  0  0  0  0  0  0  0  0  0  0
    9.1485  -47.7293  -31.2587 C   0  0  0  0  0  0  0  0  0  0  0  0
    9.0908  -48.7358  -30.1773 C   0  0  0  0  0  0  0  0  0  0  0  0
    8.4858  -48.7520  -29.0137 C   0  0  0  0  0  0  0  0  0  0  0  0
    7.6320  -47.7561  -28.3557 C   0  0  0  0  0  0  0  0  0  0  0  0
    7.5195  -46.4855  -29.1615 C   0  0  0  0  0  0  0  0  0  0  0  0
    8.9047  -45.9314  -29.4385 C   0  0  0  0  0  0  0  0  0  0  0  0
   10.6758  -44.2879  -30.8539 C   0  0  0  0  0  0  0  0  0  0  0  0
   10.7795  -42.7635  -32.7817 C   0  0  0  0  0  0  0  0  0  0  0  0
    9.9216  -43.2233  -31.6266 C   0  0  0  0  0  0  0  0  0  0  0  0
    2.1257  -50.4165  -19.3943 N   0  0  0  0  0  0  0  0  0  0  0  0
    1.0346  -51.1603  -18.9610 C   0  0  0  0  0  0  0  0  0  0  0  0
    0.3830  -51.9018  -19.7179 O   0  0  0  0  0  0  0  0  0  0  0  0
    2.6004  -49.8117  -18.6525 H   0  0  0  0  0  0  0  0  0  0  0  0
    0.5947  -51.0991  -17.5590 C   0  0  0  0  0  0  0  0  0  0  0  0
    1.5383  -50.6847  -16.6176 C   0  0  0  0  0  0  0  0  0  0  0  0
    1.1830  -50.6022  -15.2961 C   0  0  0  0  0  0  0  0  0  0  0  0
   -0.1156  -50.9365  -14.9333 C   0  0  0  0  0  0  0  0  0  0  0  0
   -1.0472  -51.3437  -15.8515 C   0  0  0  0  0  0  0  0  0  0  0  0
   -0.6866  -51.4248  -17.1740 C   0  0  0  0  0  0  0  0  0  0  0  0
   -2.3943  -51.6900  -15.4708 C   0  0  0  0  0  0  0  0  0  0  0  0
   -3.4807  -51.9524  -15.1688 N   0  0  0  0  0  0  0  0  0  0  0  0
 26 27  1  0  0  0
 27 25  1  0  0  0
 25 16  1  0  0  0
 16 17  2  0  0  0
 16 18  1  0  0  0
 18 19  1  0  0  0
 19 20  1  0  0  0
 20 21  2  0  0  0
 21 22  1  0  0  0
 22 23  1  0  0  0
 23 24  1  0  0  0
 22 10  1  0  0  0
 10 11  1  0  0  0
 11 12  2  0  0  0
 11 13  1  0  0  0
 13  1  1  0  0  0
  1  2  2  0  0  0
  2  3  1  0  0  0
  3  4  2  0  0  0
  4  5  1  0  0  0
  5  6  2  0  0  0
  6 28  1  0  0  0
 28 29  1  0  0  0
 29 30  2  0  0  0
 29 32  1  0  0  0
 32 33  2  0  0  0
 33 34  1  0  0  0
 34 35  2  0  0  0
 35 36  1  0  0  0
 36 37  2  0  0  0
 36 38  1  0  0  0
 38 39  3  0  0  0
  6  7  1  0  0  0
  7  8  2  0  0  0
  8  9  1  0  0  0
 24 18  1  0  0  0
  9  1  1  0  0  0
  8  3  1  0  0  0
 37 32  1  0  0  0
 10 14  1  0  0  0
 13 15  1  0  0  0
 28 31  1  0  0  0
M  END
> <minimizedAffinity>
-5.28550

> <CNNscore>
0.2834297419

> <CNNaffinity>
5.5634775162

> <CNN_VS>
1.5768549442

> <CNNaffinity_variance>
0.6943880320

$$$$
[H]C1=C([H])C([H])(N([H])C(=O)N([H])c2nc3c([H])c([H])c(N([H])C(=O)c4c([H])c([H])c([H])c(C#N)c4[H])c([H])c3s2)C([H])([H])C([H])([H])N(C(=O)C([H])([H])C([H])([H])C([H])([H])[H])C1([H])[H]


 39 42  0  0  0  0  0  0  0  0999 V2000
    3.8785  -49.7912  -25.6744 C   0  0  0  0  0  0  0  0  0  0  0  0
    4.3466  -50.7585  -24.9192 N   0  0  0  0  0  0  0  0  0  0  0  0
    4.1999  -50.7228  -23.6269 C   0  0  0  0  0  0  0  0  0  0  0  0
    4.6482  -51.6826  -22.7075 C   0  0  0  0  0  0  0  0  0  0  0  0
    4.4401  -51.5414  -21.3843 C   0  0  0  0  0  0  0  0  0  0  0  0
    3.7737  -50.4512  -20.8165 C   0  0  0  0  0  0  0  0  0  0  0  0
    3.3339  -49.5112  -21.7136 C   0  0  0  0  0  0  0  0  0  0  0  0
    3.5457  -49.6486  -23.0940 C   0  0  0  0  0  0  0  0  0  0  0  0
    3.1757  -48.7436  -24.4973 S   0  0  0  0  0  0  0  0  0  0  0  0
    4.9051  -48.5314  -29.0967 N   0  0  0  0  0  0  0  0  0  0  0  0
    4.8347  -48.7095  -27.6878 C   0  0  0  0  0  0  0  0  0  0  0  0
    5.5885  -48.0382  -26.9299 O   0  0  0  0  0  0  0  0  0  0  0  0
    3.9306  -49.6310  -27.1040 N   0  0  0  0  0  0  0  0  0  0  0  0
    4.3014  -49.0652  -29.7479 H   0  0  0  0  0  0  0  0  0  0  0  0
    3.2895  -50.2094  -27.6762 H   0  0  0  0  0  0  0  0  0  0  0  0
    7.4343  -45.7630  -33.5396 C   0  0  0  0  0  0  0  0  0  0  0  0
    8.0964  -46.2915  -34.4833 O   0  0  0  0  0  0  0  0  0  0  0  0
    6.9838  -46.5644  -32.4846 N   0  0  0  0  0  0  0  0  0  0  0  0
    7.3125  -47.9620  -32.5512 C   0  0  0  0  0  0  0  0  0  0  0  0
    7.6686  -48.4231  -31.1923 C   0  0  0  0  0  0  0  0  0  0  0  0
    7.0934  -48.2649  -30.0242 C   0  0  0  0  0  0  0  0  0  0  0  0
    5.8652  -47.5592  -29.6407 C   0  0  0  0  0  0  0  0  0  0  0  0
    5.2303  -46.8501  -30.8114 C   0  0  0  0  0  0  0  0  0  0  0  0
    6.2364  -45.9071  -31.4447 C   0  0  0  0  0  0  0  0  0  0  0  0
    7.1460  -44.3165  -33.5623 C   0  0  0  0  0  0  0  0  0  0  0  0
    9.2057  -43.4686  -32.5187 C   0  0  0  0  0  0  0  0  0  0  0  0
    8.4284  -43.5468  -33.8114 C   0  0  0  0  0  0  0  0  0  0  0  0
    3.5952  -50.4077  -19.4283 N   0  0  0  0  0  0  0  0  0  0  0  0
    2.4887  -50.8519  -18.7145 C   0  0  0  0  0  0  0  0  0  0  0  0
    1.4909  -51.3522  -19.2636 O   0  0  0  0  0  0  0  0  0  0  0  0
    4.3877  -49.9906  -18.8458 H   0  0  0  0  0  0  0  0  0  0  0  0
    2.4500  -50.7453  -17.2483 C   0  0  0  0  0  0  0  0  0  0  0  0
    3.6279  -51.0435  -16.5613 C   0  0  0  0  0  0  0  0  0  0  0  0
    3.6532  -50.9551  -15.1934 C   0  0  0  0  0  0  0  0  0  0  0  0
    2.4960  -50.5682  -14.5295 C   0  0  0  0  0  0  0  0  0  0  0  0
    1.3363  -50.2737  -15.1968 C   0  0  0  0  0  0  0  0  0  0  0  0
    1.3159  -50.3638  -16.5668 C   0  0  0  0  0  0  0  0  0  0  0  0
    0.1370  -49.8726  -14.5039 C   0  0  0  0  0  0  0  0  0  0  0  0
   -0.8312  -49.5664  -13.9477 N   0  0  0  0  0  0  0  0  0  0  0  0
 26 27  1  0  0  0
 27 25  1  0  0  0
 25 16  1  0  0  0
 16 17  2  0  0  0
 16 18  1  0  0  0
 18 19  1  0  0  0
 19 20  1  0  0  0
 20 21  2  0  0  0
 21 22  1  0  0  0
 22 23  1  0  0  0
 23 24  1  0  0  0
 22 10  1  0  0  0
 10 11  1  0  0  0
 11 12  2  0  0  0
 11 13  1  0  0  0
 13  1  1  0  0  0
  1  2  2  0  0  0
  2  3  1  0  0  0
  3  4  2  0  0  0
  4  5  1  0  0  0
  5  6  2  0  0  0
  6 28  1  0  0  0
 28 29  1  0  0  0
 29 30  2  0  0  0
 29 32  1  0  0  0
 32 33  2  0  0  0
 33 34  1  0  0  0
 34 35  2  0  0  0
 35 36  1  0  0  0
 36 37  2  0  0  0
 36 38  1  0  0  0
 38 39  3  0  0  0
  6  7  1  0  0  0
  7  8  2  0  0  0
  8  9  1  0  0  0
 24 18  1  0  0  0
  9  1  1  0  0  0
  8  3  1  0  0  0
 37 32  1  0  0  0
 10 14  1  0  0  0
 13 15  1  0  0  0
 28 31  1  0  0  0
M  END
> <minimizedAffinity>
-5.16864

> <CNNscore>
0.2350362837

> <CNNaffinity>
5.4761562347

> <CNN_VS>
1.2870954275

> <CNNaffinity_variance>
0.2924022675

$$$$
[H]C1=C([H])C([H])(N([H])C(=O)N([H])c2nc3c([H])c([H])c(N([H])C(=O)c4c([H])c([H])c([H])c(C#N)c4[H])c([H])c3s2)C([H])([H])C([H])([H])N(C(=O)C([H])([H])C([H])([H])C([H])([H])[H])C1([H])[H]


 39 42  0  0  0  0  0  0  0  0999 V2000
    4.1964  -48.9391  -19.4722 C   0  0  0  0  0  0  0  0  0  0  0  0
    4.2713  -47.7023  -19.9079 N   0  0  0  0  0  0  0  0  0  0  0  0
    4.0567  -47.4252  -21.1609 C   0  0  0  0  0  0  0  0  0  0  0  0
    4.1042  -46.1562  -21.7568 C   0  0  0  0  0  0  0  0  0  0  0  0
    3.8639  -45.9860  -23.0712 C   0  0  0  0  0  0  0  0  0  0  0  0
    3.5521  -47.0329  -23.9440 C   0  0  0  0  0  0  0  0  0  0  0  0
    3.5048  -48.2750  -23.3636 C   0  0  0  0  0  0  0  0  0  0  0  0
    3.7536  -48.4631  -21.9955 C   0  0  0  0  0  0  0  0  0  0  0  0
    3.7950  -49.7908  -20.9179 S   0  0  0  0  0  0  0  0  0  0  0  0
    3.4665  -50.1158  -15.9458 N   0  0  0  0  0  0  0  0  0  0  0  0
    3.2973  -49.6030  -17.2611 C   0  0  0  0  0  0  0  0  0  0  0  0
    2.1496  -49.2625  -17.6613 O   0  0  0  0  0  0  0  0  0  0  0  0
    4.3950  -49.4622  -18.1459 N   0  0  0  0  0  0  0  0  0  0  0  0
    4.3937  -50.4046  -15.5847 H   0  0  0  0  0  0  0  0  0  0  0  0
    5.3584  -49.7265  -17.8726 H   0  0  0  0  0  0  0  0  0  0  0  0
   -2.2581  -49.7624  -14.9946 C   0  0  0  0  0  0  0  0  0  0  0  0
   -2.9808  -48.7256  -15.0990 O   0  0  0  0  0  0  0  0  0  0  0  0
   -0.8720  -49.6516  -15.1523 N   0  0  0  0  0  0  0  0  0  0  0  0
   -0.3579  -48.3382  -15.4287 C   0  0  0  0  0  0  0  0  0  0  0  0
    0.8992  -48.1600  -14.6713 C   0  0  0  0  0  0  0  0  0  0  0  0
    1.9609  -48.9165  -14.5263 C   0  0  0  0  0  0  0  0  0  0  0  0
    2.2870  -50.2377  -15.0758 C   0  0  0  0  0  0  0  0  0  0  0  0
    1.1470  -50.8145  -15.8784 C   0  0  0  0  0  0  0  0  0  0  0  0
   -0.1062  -50.8637  -15.0242 C   0  0  0  0  0  0  0  0  0  0  0  0
   -2.8812  -51.0688  -14.7099 C   0  0  0  0  0  0  0  0  0  0  0  0
   -4.2287  -52.2308  -16.4082 C   0  0  0  0  0  0  0  0  0  0  0  0
   -4.2454  -51.1353  -15.3685 C   0  0  0  0  0  0  0  0  0  0  0  0
    3.3036  -46.7468  -25.2920 N   0  0  0  0  0  0  0  0  0  0  0  0
    3.8359  -47.4014  -26.3963 C   0  0  0  0  0  0  0  0  0  0  0  0
    4.6327  -48.3512  -26.2953 O   0  0  0  0  0  0  0  0  0  0  0  0
    2.6350  -45.9415  -25.5063 H   0  0  0  0  0  0  0  0  0  0  0  0
    3.4724  -46.9883  -27.7601 C   0  0  0  0  0  0  0  0  0  0  0  0
    2.4195  -46.0807  -27.8864 C   0  0  0  0  0  0  0  0  0  0  0  0
    2.0406  -45.6547  -29.1331 C   0  0  0  0  0  0  0  0  0  0  0  0
    2.7225  -46.1441  -30.2400 C   0  0  0  0  0  0  0  0  0  0  0  0
    3.7569  -47.0348  -30.1240 C   0  0  0  0  0  0  0  0  0  0  0  0
    4.1327  -47.4586  -28.8731 C   0  0  0  0  0  0  0  0  0  0  0  0
    4.4621  -47.5407  -31.2756 C   0  0  0  0  0  0  0  0  0  0  0  0
    5.0179  -47.9384  -32.2101 N   0  0  0  0  0  0  0  0  0  0  0  0
 26 27  1  0  0  0
 27 25  1  0  0  0
 25 16  1  0  0  0
 16 17  2  0  0  0
 16 18  1  0  0  0
 18 19  1  0  0  0
 19 20  1  0  0  0
 20 21  2  0  0  0
 21 22  1  0  0  0
 22 23  1  0  0  0
 23 24  1  0  0  0
 22 10  1  0  0  0
 10 11  1  0  0  0
 11 12  2  0  0  0
 11 13  1  0  0  0
 13  1  1  0  0  0
  1  2  2  0  0  0
  2  3  1  0  0  0
  3  4  2  0  0  0
  4  5  1  0  0  0
  5  6  2  0  0  0
  6 28  1  0  0  0
 28 29  1  0  0  0
 29 30  2  0  0  0
 29 32  1  0  0  0
 32 33  2  0  0  0
 33 34  1  0  0  0
 34 35  2  0  0  0
 35 36  1  0  0  0
 36 37  2  0  0  0
 36 38  1  0  0  0
 38 39  3  0  0  0
  6  7  1  0  0  0
  7  8  2  0  0  0
  8  9  1  0  0  0
 24 18  1  0  0  0
  9  1  1  0  0  0
  8  3  1  0  0  0
 37 32  1  0  0  0
 10 14  1  0  0  0
 13 15  1  0  0  0
 28 31  1  0  0  0
M  END
> <minimizedAffinity>
-6.36081

> <CNNscore>
0.2279831022

> <CNNaffinity>
5.7964653969

> <CNN_VS>
1.3214961290

> <CNNaffinity_variance>
0.4047477841

$$$$
[H]C1=C([H])C([H])(N([H])C(=O)N([H])c2nc3c([H])c([H])c(N([H])C(=O)c4c([H])c([H])c([H])c(C#N)c4[H])c([H])c3s2)C([H])([H])C([H])([H])N(C(=O)C([H])([H])C([H])([H])C([H])([H])[H])C1([H])[H]


 39 42  0  0  0  0  0  0  0  0999 V2000
    5.1025  -51.2930  -23.3698 C   0  0  0  0  0  0  0  0  0  0  0  0
    3.8002  -51.2975  -23.5406 N   0  0  0  0  0  0  0  0  0  0  0  0
    2.9959  -51.2538  -22.5188 C   0  0  0  0  0  0  0  0  0  0  0  0
    1.5938  -51.2532  -22.5577 C   0  0  0  0  0  0  0  0  0  0  0  0
    0.8581  -51.2059  -21.4303 C   0  0  0  0  0  0  0  0  0  0  0  0
    1.4096  -51.1543  -20.1466 C   0  0  0  0  0  0  0  0  0  0  0  0
    2.7809  -51.1545  -20.1058 C   0  0  0  0  0  0  0  0  0  0  0  0
    3.5565  -51.2037  -21.2742 C   0  0  0  0  0  0  0  0  0  0  0  0
    5.2249  -51.2221  -21.6503 S   0  0  0  0  0  0  0  0  0  0  0  0
    7.8252  -50.1553  -25.7459 N   0  0  0  0  0  0  0  0  0  0  0  0
    6.7797  -50.1398  -24.7823 C   0  0  0  0  0  0  0  0  0  0  0  0
    6.3863  -49.0426  -24.2978 O   0  0  0  0  0  0  0  0  0  0  0  0
    6.1599  -51.3367  -24.3456 N   0  0  0  0  0  0  0  0  0  0  0  0
    8.1725  -51.0372  -26.1642 H   0  0  0  0  0  0  0  0  0  0  0  0
    6.4422  -52.2653  -24.7073 H   0  0  0  0  0  0  0  0  0  0  0  0
    9.8525  -46.5176  -29.8027 C   0  0  0  0  0  0  0  0  0  0  0  0
   10.8161  -46.7318  -30.5989 O   0  0  0  0  0  0  0  0  0  0  0  0
    9.5619  -47.4583  -28.8082 N   0  0  0  0  0  0  0  0  0  0  0  0
   10.3974  -48.6268  -28.7626 C   0  0  0  0  0  0  0  0  0  0  0  0
   10.6614  -48.9570  -27.3459 C   0  0  0  0  0  0  0  0  0  0  0  0
    9.8776  -49.0592  -26.2992 C   0  0  0  0  0  0  0  0  0  0  0  0
    8.4281  -48.8786  -26.1576 C   0  0  0  0  0  0  0  0  0  0  0  0
    7.7847  -48.4289  -27.4461 C   0  0  0  0  0  0  0  0  0  0  0  0
    8.4558  -47.1595  -27.9368 C   0  0  0  0  0  0  0  0  0  0  0  0
    9.0508  -45.2861  -29.9313 C   0  0  0  0  0  0  0  0  0  0  0  0
    9.8720  -43.6697  -28.2690 C   0  0  0  0  0  0  0  0  0  0  0  0
    9.9408  -44.0764  -29.7220 C   0  0  0  0  0  0  0  0  0  0  0  0
    0.5556  -51.0914  -19.0387 N   0  0  0  0  0  0  0  0  0  0  0  0
    0.6673  -50.2402  -17.9458 C   0  0  0  0  0  0  0  0  0  0  0  0
    1.5870  -49.4106  -17.8308 O   0  0  0  0  0  0  0  0  0  0  0  0
   -0.2736  -51.7648  -19.0209 H   0  0  0  0  0  0  0  0  0  0  0  0
   -0.3182  -50.2870  -16.8552 C   0  0  0  0  0  0  0  0  0  0  0  0
   -0.9801  -51.4991  -16.6525 C   0  0  0  0  0  0  0  0  0  0  0  0
   -1.9050  -51.6038  -15.6460 C   0  0  0  0  0  0  0  0  0  0  0  0
   -2.1558  -50.4909  -14.8535 C   0  0  0  0  0  0  0  0  0  0  0  0
   -1.5100  -49.2981  -15.0461 C   0  0  0  0  0  0  0  0  0  0  0  0
   -0.5846  -49.1981  -16.0556 C   0  0  0  0  0  0  0  0  0  0  0  0
   -1.7734  -48.1449  -14.2212 C   0  0  0  0  0  0  0  0  0  0  0  0
   -1.9686  -47.2152  -13.5596 N   0  0  0  0  0  0  0  0  0  0  0  0
 26 27  1  0  0  0
 27 25  1  0  0  0
 25 16  1  0  0  0
 16 17  2  0  0  0
 16 18  1  0  0  0
 18 19  1  0  0  0
 19 20  1  0  0  0
 20 21  2  0  0  0
 21 22  1  0  0  0
 22 23  1  0  0  0
 23 24  1  0  0  0
 22 10  1  0  0  0
 10 11  1  0  0  0
 11 12  2  0  0  0
 11 13  1  0  0  0
 13  1  1  0  0  0
  1  2  2  0  0  0
  2  3  1  0  0  0
  3  4  2  0  0  0
  4  5  1  0  0  0
  5  6  2  0  0  0
  6 28  1  0  0  0
 28 29  1  0  0  0
 29 30  2  0  0  0
 29 32  1  0  0  0
 32 33  2  0  0  0
 33 34  1  0  0  0
 34 35  2  0  0  0
 35 36  1  0  0  0
 36 37  2  0  0  0
 36 38  1  0  0  0
 38 39  3  0  0  0
  6  7  1  0  0  0
  7  8  2  0  0  0
  8  9  1  0  0  0
 24 18  1  0  0  0
  9  1  1  0  0  0
  8  3  1  0  0  0
 37 32  1  0  0  0
 10 14  1  0  0  0
 13 15  1  0  0  0
 28 31  1  0  0  0
M  END
> <minimizedAffinity>
-6.33542

> <CNNscore>
0.2060436606

> <CNNaffinity>
5.7224259377

> <CNN_VS>
1.1790696383

> <CNNaffinity_variance>
0.2968579531

$$$$
[H]C1=C([H])C([H])(N([H])C(=O)N([H])c2nc3c([H])c([H])c(N([H])C(=O)c4c([H])c([H])c([H])c(C#N)c4[H])c([H])c3s2)C([H])([H])C([H])([H])N(C(=O)C([H])([H])C([H])([H])C([H])([H])[H])C1([H])[H]


 39 42  0  0  0  0  0  0  0  0999 V2000
    7.0055  -49.9584  -22.8002 C   0  0  0  0  0  0  0  0  0  0  0  0
    6.0420  -50.8511  -22.8091 N   0  0  0  0  0  0  0  0  0  0  0  0
    5.1534  -50.8791  -21.8591 C   0  0  0  0  0  0  0  0  0  0  0  0
    4.0786  -51.7732  -21.7455 C   0  0  0  0  0  0  0  0  0  0  0  0
    3.2160  -51.7098  -20.7129 C   0  0  0  0  0  0  0  0  0  0  0  0
    3.3086  -50.7696  -19.6823 C   0  0  0  0  0  0  0  0  0  0  0  0
    4.3589  -49.8937  -19.7912 C   0  0  0  0  0  0  0  0  0  0  0  0
    5.2632  -49.9514  -20.8627 C   0  0  0  0  0  0  0  0  0  0  0  0
    6.6522  -49.0837  -21.3557 S   0  0  0  0  0  0  0  0  0  0  0  0
    8.8916  -48.8282  -25.8854 N   0  0  0  0  0  0  0  0  0  0  0  0
    7.8491  -49.0447  -24.9429 C   0  0  0  0  0  0  0  0  0  0  0  0
    6.6898  -48.6023  -25.1739 O   0  0  0  0  0  0  0  0  0  0  0  0
    8.0788  -49.7520  -23.7369 N   0  0  0  0  0  0  0  0  0  0  0  0
    9.8543  -49.1774  -25.7282 H   0  0  0  0  0  0  0  0  0  0  0  0
    9.0094  -50.1363  -23.4940 H   0  0  0  0  0  0  0  0  0  0  0  0
    9.6186  -47.8098  -31.5629 C   0  0  0  0  0  0  0  0  0  0  0  0
   10.6965  -47.4736  -32.1404 O   0  0  0  0  0  0  0  0  0  0  0  0
    9.5896  -47.9088  -30.1674 N   0  0  0  0  0  0  0  0  0  0  0  0
   10.8145  -47.6157  -29.4750 C   0  0  0  0  0  0  0  0  0  0  0  0
   10.4879  -46.8540  -28.2506 C   0  0  0  0  0  0  0  0  0  0  0  0
    9.5986  -47.0374  -27.3042 C   0  0  0  0  0  0  0  0  0  0  0  0
    8.5889  -48.0860  -27.1185 C   0  0  0  0  0  0  0  0  0  0  0  0
    8.5586  -49.0544  -28.2751 C   0  0  0  0  0  0  0  0  0  0  0  0
    8.3381  -48.2962  -29.5709 C   0  0  0  0  0  0  0  0  0  0  0  0
    8.4117  -48.0923  -32.3628 C   0  0  0  0  0  0  0  0  0  0  0  0
    7.0186  -46.8017  -33.9261 C   0  0  0  0  0  0  0  0  0  0  0  0
    8.4289  -47.2496  -33.6232 C   0  0  0  0  0  0  0  0  0  0  0  0
    2.3499  -50.7786  -18.6617 N   0  0  0  0  0  0  0  0  0  0  0  0
    2.5876  -50.7492  -17.2928 C   0  0  0  0  0  0  0  0  0  0  0  0
    3.7334  -50.7173  -16.8098 O   0  0  0  0  0  0  0  0  0  0  0  0
    1.3231  -50.8114  -18.9550 H   0  0  0  0  0  0  0  0  0  0  0  0
    1.4695  -50.7561  -16.3374 C   0  0  0  0  0  0  0  0  0  0  0  0
    0.4348  -49.8482  -16.5683 C   0  0  0  0  0  0  0  0  0  0  0  0
   -0.6370  -49.8138  -15.7141 C   0  0  0  0  0  0  0  0  0  0  0  0
   -0.6590  -50.6910  -14.6373 C   0  0  0  0  0  0  0  0  0  0  0  0
    0.3527  -51.5850  -14.4043 C   0  0  0  0  0  0  0  0  0  0  0  0
    1.4241  -51.6156  -15.2625 C   0  0  0  0  0  0  0  0  0  0  0  0
    0.3262  -52.4939  -13.2851 C   0  0  0  0  0  0  0  0  0  0  0  0
    0.2914  -53.2310  -12.3930 N   0  0  0  0  0  0  0  0  0  0  0  0
 26 27  1  0  0  0
 27 25  1  0  0  0
 25 16  1  0  0  0
 16 17  2  0  0  0
 16 18  1  0  0  0
 18 19  1  0  0  0
 19 20  1  0  0  0
 20 21  2  0  0  0
 21 22  1  0  0  0
 22 23  1  0  0  0
 23 24  1  0  0  0
 22 10  1  0  0  0
 10 11  1  0  0  0
 11 12  2  0  0  0
 11 13  1  0  0  0
 13  1  1  0  0  0
  1  2  2  0  0  0
  2  3  1  0  0  0
  3  4  2  0  0  0
  4  5  1  0  0  0
  5  6  2  0  0  0
  6 28  1  0  0  0
 28 29  1  0  0  0
 29 30  2  0  0  0
 29 32  1  0  0  0
 32 33  2  0  0  0
 33 34  1  0  0  0
 34 35  2  0  0  0
 35 36  1  0  0  0
 36 37  2  0  0  0
 36 38  1  0  0  0
 38 39  3  0  0  0
  6  7  1  0  0  0
  7  8  2  0  0  0
  8  9  1  0  0  0
 24 18  1  0  0  0
  9  1  1  0  0  0
  8  3  1  0  0  0
 37 32  1  0  0  0
 10 14  1  0  0  0
 13 15  1  0  0  0
 28 31  1  0  0  0
M  END
> <minimizedAffinity>
-5.45310

> <CNNscore>
0.1905920953

> <CNNaffinity>
5.3203859329

> <CNN_VS>
1.0140235424

> <CNNaffinity_variance>
0.2778265476

$$$$
[H]C1=C([H])C([H])(N([H])C(=O)N([H])c2nc3c([H])c([H])c(N([H])C(=O)c4c([H])c([H])c([H])c(C#N)c4[H])c([H])c3s2)C([H])([H])C([H])([H])N(C(=O)C([H])([H])C([H])([H])C([H])([H])[H])C1([H])[H]


 39 42  0  0  0  0  0  0  0  0999 V2000
    1.6375  -51.5446  -20.3972 C   0  0  0  0  0  0  0  0  0  0  0  0
    1.3667  -50.8315  -19.3280 N   0  0  0  0  0  0  0  0  0  0  0  0
    0.4507  -51.2158  -18.4876 C   0  0  0  0  0  0  0  0  0  0  0  0
    0.0624  -50.5539  -17.3134 C   0  0  0  0  0  0  0  0  0  0  0  0
   -0.9038  -51.0460  -16.5143 C   0  0  0  0  0  0  0  0  0  0  0  0
   -1.5938  -52.2341  -16.7738 C   0  0  0  0  0  0  0  0  0  0  0  0
   -1.2157  -52.8835  -17.9215 C   0  0  0  0  0  0  0  0  0  0  0  0
   -0.2105  -52.3793  -18.7609 C   0  0  0  0  0  0  0  0  0  0  0  0
    0.5318  -52.8578  -20.2256 S   0  0  0  0  0  0  0  0  0  0  0  0
    3.3886  -49.9330  -23.3450 N   0  0  0  0  0  0  0  0  0  0  0  0
    2.4561  -50.1892  -22.3027 C   0  0  0  0  0  0  0  0  0  0  0  0
    1.4777  -49.4110  -22.1280 O   0  0  0  0  0  0  0  0  0  0  0  0
    2.5966  -51.3074  -21.4441 N   0  0  0  0  0  0  0  0  0  0  0  0
    4.2026  -50.5506  -23.5168 H   0  0  0  0  0  0  0  0  0  0  0  0
    3.3798  -51.9785  -21.5395 H   0  0  0  0  0  0  0  0  0  0  0  0
    4.5385  -46.8041  -28.1082 C   0  0  0  0  0  0  0  0  0  0  0  0
    5.6603  -46.3149  -28.4408 O   0  0  0  0  0  0  0  0  0  0  0  0
    4.4075  -47.4406  -26.8689 N   0  0  0  0  0  0  0  0  0  0  0  0
    5.5838  -47.4945  -26.0447 C   0  0  0  0  0  0  0  0  0  0  0  0
    5.1817  -47.2601  -24.6414 C   0  0  0  0  0  0  0  0  0  0  0  0
    4.2238  -47.7614  -23.8989 C   0  0  0  0  0  0  0  0  0  0  0  0
    3.1871  -48.7550  -24.2021 C   0  0  0  0  0  0  0  0  0  0  0  0
    3.2252  -49.1907  -25.6461 C   0  0  0  0  0  0  0  0  0  0  0  0
    3.1104  -47.9769  -26.5495 C   0  0  0  0  0  0  0  0  0  0  0  0
    3.3882  -46.6991  -29.0257 C   0  0  0  0  0  0  0  0  0  0  0  0
    3.4672  -45.8953  -31.3491 C   0  0  0  0  0  0  0  0  0  0  0  0
    3.8297  -47.0420  -30.4352 C   0  0  0  0  0  0  0  0  0  0  0  0
   -2.5713  -52.6674  -15.8696 N   0  0  0  0  0  0  0  0  0  0  0  0
   -3.9446  -52.4813  -15.9723 C   0  0  0  0  0  0  0  0  0  0  0  0
   -4.4718  -51.8745  -16.9216 O   0  0  0  0  0  0  0  0  0  0  0  0
   -2.2372  -53.1987  -15.0050 H   0  0  0  0  0  0  0  0  0  0  0  0
   -4.8515  -53.0043  -14.9394 C   0  0  0  0  0  0  0  0  0  0  0  0
   -4.9179  -52.2957  -13.7386 C   0  0  0  0  0  0  0  0  0  0  0  0
   -5.7512  -52.7327  -12.7415 C   0  0  0  0  0  0  0  0  0  0  0  0
   -6.5090  -53.8761  -12.9601 C   0  0  0  0  0  0  0  0  0  0  0  0
   -6.4493  -54.5767  -14.1360 C   0  0  0  0  0  0  0  0  0  0  0  0
   -5.6132  -54.1351  -15.1316 C   0  0  0  0  0  0  0  0  0  0  0  0
   -7.2376  -55.7634  -14.3589 C   0  0  0  0  0  0  0  0  0  0  0  0
   -7.8756  -56.7156  -14.5221 N   0  0  0  0  0  0  0  0  0  0  0  0
 26 27  1  0  0  0
 27 25  1  0  0  0
 25 16  1  0  0  0
 16 17  2  0  0  0
 16 18  1  0  0  0
 18 19  1  0  0  0
 19 20  1  0  0  0
 20 21  2  0  0  0
 21 22  1  0  0  0
 22 23  1  0  0  0
 23 24  1  0  0  0
 22 10  1  0  0  0
 10 11  1  0  0  0
 11 12  2  0  0  0
 11 13  1  0  0  0
 13  1  1  0  0  0
  1  2  2  0  0  0
  2  3  1  0  0  0
  3  4  2  0  0  0
  4  5  1  0  0  0
  5  6  2  0  0  0
  6 28  1  0  0  0
 28 29  1  0  0  0
 29 30  2  0  0  0
 29 32  1  0  0  0
 32 33  2  0  0  0
 33 34  1  0  0  0
 34 35  2  0  0  0
 35 36  1  0  0  0
 36 37  2  0  0  0
 36 38  1  0  0  0
 38 39  3  0  0  0
  6  7  1  0  0  0
  7  8  2  0  0  0
  8  9  1  0  0  0
 24 18  1  0  0  0
  9  1  1  0  0  0
  8  3  1  0  0  0
 37 32  1  0  0  0
 10 14  1  0  0  0
 13 15  1  0  0  0
 28 31  1  0  0  0
M  END
> <minimizedAffinity>
-7.00478

> <CNNscore>
0.1874005795

> <CNNaffinity>
5.8037118912

> <CNN_VS>
1.0876189470

> <CNNaffinity_variance>
0.0574919172

$$$$
[H]/C(C(=O)N([H])c1c(OC([H])([H])C([H])([H])[H])c([H])c2nc([H])c(C#N)c(N([H])c3c([H])c([H])c(OC([H])([H])c4c([H])c([H])c([H])c(F)c4[H])c(Cl)c3[H])c2c1[H])=C(/[H])C([H])([H])N(C([H])([H])[H])C([H])([H])[H]


 43 46  0  0  0  0  0  0  0  0999 V2000
   -0.6322  -52.7952  -19.1569 C   0  0  0  0  0  0  0  0  0  0  0  0
   -1.1382  -53.8246  -19.8962 C   0  0  0  0  0  0  0  0  0  0  0  0
   -0.9221  -53.8730  -21.2638 C   0  0  0  0  0  0  0  0  0  0  0  0
   -1.4197  -54.8874  -21.9996 N   0  0  0  0  0  0  0  0  0  0  0  0
   -1.2197  -54.9488  -23.3289 C   0  0  0  0  0  0  0  0  0  0  0  0
   -0.4999  -53.9906  -24.0261 C   0  0  0  0  0  0  0  0  0  0  0  0
    0.0146  -52.9480  -23.2852 C   0  0  0  0  0  0  0  0  0  0  0  0
   -0.2044  -52.9055  -21.9160 C   0  0  0  0  0  0  0  0  0  0  0  0
    0.3064  -51.8551  -21.1319 C   0  0  0  0  0  0  0  0  0  0  0  0
    0.1179  -51.7657  -19.7755 C   0  0  0  0  0  0  0  0  0  0  0  0
    0.6194  -50.7263  -18.9631 N   0  0  0  0  0  0  0  0  0  0  0  0
    1.9274  -50.6494  -18.4715 C   0  0  0  0  0  0  0  0  0  0  0  0
    2.8293  -51.5142  -18.7006 O   0  0  0  0  0  0  0  0  0  0  0  0
   -0.0826  -49.9527  -18.7232 H   0  0  0  0  0  0  0  0  0  0  0  0
    2.3215  -49.5197  -17.6387 C   0  0  0  0  0  0  0  0  0  0  0  0
    1.6694  -49.1945  -16.5626 C   0  0  0  0  0  0  0  0  0  0  0  0
    2.1172  -48.0156  -15.7334 C   0  0  0  0  0  0  0  0  0  0  0  0
    1.7938  -48.3413  -14.3672 N   0  0  0  0  0  0  0  0  0  0  0  0
    1.0927  -47.2502  -13.7191 C   0  0  0  0  0  0  0  0  0  0  0  0
    2.9904  -48.7193  -13.6614 C   0  0  0  0  0  0  0  0  0  0  0  0
   -0.3114  -54.0974  -25.4541 C   0  0  0  0  0  0  0  0  0  0  0  0
   -0.1659  -54.1980  -26.6095 N   0  0  0  0  0  0  0  0  0  0  0  0
    0.7594  -51.9259  -23.9229 N   0  0  0  0  0  0  0  0  0  0  0  0
    0.2291  -51.1880  -24.4322 H   0  0  0  0  0  0  0  0  0  0  0  0
    2.1817  -51.8756  -23.8918 C   0  0  0  0  0  0  0  0  0  0  0  0
    2.9000  -52.2920  -24.9864 C   0  0  0  0  0  0  0  0  0  0  0  0
    4.2821  -52.2374  -24.9380 C   0  0  0  0  0  0  0  0  0  0  0  0
    4.9690  -51.7817  -23.8353 C   0  0  0  0  0  0  0  0  0  0  0  0
    4.2499  -51.3583  -22.7222 C   0  0  0  0  0  0  0  0  0  0  0  0
    5.0684  -50.7622  -21.2730 Cl  0  0  0  0  0  0  0  0  0  0  0  0
    2.8768  -51.4221  -22.7943 C   0  0  0  0  0  0  0  0  0  0  0  0
    6.3375  -51.7361  -23.8065 O   0  0  0  0  0  0  0  0  0  0  0  0
    7.1677  -50.6482  -23.5960 C   0  0  0  0  0  0  0  0  0  0  0  0
    7.0213  -49.5376  -24.5583 C   0  0  0  0  0  0  0  0  0  0  0  0
    7.8444  -49.4713  -25.6623 C   0  0  0  0  0  0  0  0  0  0  0  0
    7.7210  -48.4270  -26.5862 C   0  0  0  0  0  0  0  0  0  0  0  0
    6.7736  -47.4499  -26.4041 C   0  0  0  0  0  0  0  0  0  0  0  0
    5.9503  -47.5238  -25.2922 C   0  0  0  0  0  0  0  0  0  0  0  0
    5.0051  -46.5560  -25.1023 F   0  0  0  0  0  0  0  0  0  0  0  0
    6.0781  -48.5507  -24.3918 C   0  0  0  0  0  0  0  0  0  0  0  0
   -0.8277  -52.7170  -17.8055 O   0  0  0  0  0  0  0  0  0  0  0  0
   -2.0956  -51.6026  -16.0602 C   0  0  0  0  0  0  0  0  0  0  0  0
   -2.0043  -52.7131  -17.0819 C   0  0  0  0  0  0  0  0  0  0  0  0
 42 43  1  0  0  0
 43 41  1  0  0  0
 41  1  1  0  0  0
  1  2  2  0  0  0
  2  3  1  0  0  0
  3  4  2  0  0  0
  4  5  1  0  0  0
  5  6  2  0  0  0
  6 21  1  0  0  0
 21 22  3  0  0  0
  6  7  1  0  0  0
  7 23  1  0  0  0
 23 25  1  0  0  0
 25 26  2  0  0  0
 26 27  1  0  0  0
 27 28  2  0  0  0
 28 32  1  0  0  0
 32 33  1  0  0  0
 33 34  1  0  0  0
 34 35  2  0  0  0
 35 36  1  0  0  0
 36 37  2  0  0  0
 37 38  1  0  0  0
 38 39  1  0  0  0
 38 40  2  0  0  0
 28 29  1  0  0  0
 29 30  1  0  0  0
 29 31  2  0  0  0
  7  8  2  0  0  0
  8  9  1  0  0  0
  9 10  2  0  0  0
 10 11  1  0  0  0
 11 12  1  0  0  0
 12 13  2  0  0  0
 12 15  1  0  0  0
 15 16  2  0  0  0
 16 17  1  0  0  0
 17 18  1  0  0  0
 18 19  1  0  0  0
 18 20  1  0  0  0
 10  1  1  0  0  0
  8  3  1  0  0  0
 31 25  1  0  0  0
 40 34  1  0  0  0
 23 24  1  0  0  0
 11 14  1  0  0  0
M  END
> <minimizedAffinity>
-7.49992

> <CNNscore>
0.5441034436

> <CNNaffinity>
7.7609887123

> <CNN_VS>
4.2227807045

> <CNNaffinity_variance>
0.0609209016

$$$$
[H]/C(C(=O)N([H])c1c(OC([H])([H])C([H])([H])[H])c([H])c2nc([H])c(C#N)c(N([H])c3c([H])c([H])c(OC([H])([H])c4c([H])c([H])c([H])c(F)c4[H])c(Cl)c3[H])c2c1[H])=C(/[H])C([H])([H])N(C([H])([H])[H])C([H])([H])[H]


 43 46  0  0  0  0  0  0  0  0999 V2000
   -0.4590  -52.8171  -19.3996 C   0  0  0  0  0  0  0  0  0  0  0  0
   -0.9120  -53.8751  -20.1329 C   0  0  0  0  0  0  0  0  0  0  0  0
   -0.7878  -53.8714  -21.5127 C   0  0  0  0  0  0  0  0  0  0  0  0
   -1.2338  -54.9136  -22.2426 N   0  0  0  0  0  0  0  0  0  0  0  0
   -1.1216  -54.9253  -23.5835 C   0  0  0  0  0  0  0  0  0  0  0  0
   -0.5490  -53.8850  -24.2993 C   0  0  0  0  0  0  0  0  0  0  0  0
   -0.0885  -52.8131  -23.5645 C   0  0  0  0  0  0  0  0  0  0  0  0
   -0.2150  -52.8230  -22.1832 C   0  0  0  0  0  0  0  0  0  0  0  0
    0.2439  -51.7447  -21.4049 C   0  0  0  0  0  0  0  0  0  0  0  0
    0.1422  -51.7046  -20.0369 C   0  0  0  0  0  0  0  0  0  0  0  0
    0.5950  -50.6388  -19.2301 N   0  0  0  0  0  0  0  0  0  0  0  0
    1.8451  -50.5786  -18.6041 C   0  0  0  0  0  0  0  0  0  0  0  0
    2.7315  -51.4847  -18.6886 O   0  0  0  0  0  0  0  0  0  0  0  0
   -0.0975  -49.8298  -19.1085 H   0  0  0  0  0  0  0  0  0  0  0  0
    2.1926  -49.4179  -17.7934 C   0  0  0  0  0  0  0  0  0  0  0  0
    2.8339  -49.5284  -16.6685 C   0  0  0  0  0  0  0  0  0  0  0  0
    3.1706  -48.2959  -15.8651 C   0  0  0  0  0  0  0  0  0  0  0  0
    3.1135  -48.6926  -14.4806 N   0  0  0  0  0  0  0  0  0  0  0  0
    3.8168  -49.9416  -14.2629 C   0  0  0  0  0  0  0  0  0  0  0  0
    1.7414  -48.7543  -14.0491 C   0  0  0  0  0  0  0  0  0  0  0  0
   -0.4505  -53.9408  -25.7391 C   0  0  0  0  0  0  0  0  0  0  0  0
   -0.3554  -53.9824  -26.9034 N   0  0  0  0  0  0  0  0  0  0  0  0
    0.5067  -51.7082  -24.2208 N   0  0  0  0  0  0  0  0  0  0  0  0
   -0.1256  -51.0318  -24.6980 H   0  0  0  0  0  0  0  0  0  0  0  0
    1.9141  -51.4962  -24.2496 C   0  0  0  0  0  0  0  0  0  0  0  0
    2.7607  -52.5722  -24.3644 C   0  0  0  0  0  0  0  0  0  0  0  0
    4.1261  -52.3475  -24.3895 C   0  0  0  0  0  0  0  0  0  0  0  0
    4.6729  -51.0869  -24.3040 C   0  0  0  0  0  0  0  0  0  0  0  0
    3.8233  -49.9914  -24.1872 C   0  0  0  0  0  0  0  0  0  0  0  0
    4.4582  -48.3455  -24.0724 Cl  0  0  0  0  0  0  0  0  0  0  0  0
    2.4697  -50.2402  -24.1645 C   0  0  0  0  0  0  0  0  0  0  0  0
    6.0273  -50.8851  -24.3297 O   0  0  0  0  0  0  0  0  0  0  0  0
    6.9641  -51.1412  -23.3429 C   0  0  0  0  0  0  0  0  0  0  0  0
    6.9904  -50.1795  -22.2224 C   0  0  0  0  0  0  0  0  0  0  0  0
    7.9613  -49.2018  -22.1781 C   0  0  0  0  0  0  0  0  0  0  0  0
    8.0029  -48.2807  -21.1249 C   0  0  0  0  0  0  0  0  0  0  0  0
    7.0722  -48.3392  -20.1169 C   0  0  0  0  0  0  0  0  0  0  0  0
    6.0997  -49.3247  -20.1689 C   0  0  0  0  0  0  0  0  0  0  0  0
    5.1699  -49.3911  -19.1704 F   0  0  0  0  0  0  0  0  0  0  0  0
    6.0664  -50.2233  -21.2047 C   0  0  0  0  0  0  0  0  0  0  0  0
   -0.5668  -52.7888  -18.0364 O   0  0  0  0  0  0  0  0  0  0  0  0
   -1.5761  -51.6386  -16.1512 C   0  0  0  0  0  0  0  0  0  0  0  0
   -1.6911  -52.6797  -17.2413 C   0  0  0  0  0  0  0  0  0  0  0  0
 42 43  1  0  0  0
 43 41  1  0  0  0
 41  1  1  0  0  0
  1  2  2  0  0  0
  2  3  1  0  0  0
  3  4  2  0  0  0
  4  5  1  0  0  0
  5  6  2  0  0  0
  6 21  1  0  0  0
 21 22  3  0  0  0
  6  7  1  0  0  0
  7 23  1  0  0  0
 23 25  1  0  0  0
 25 26  2  0  0  0
 26 27  1  0  0  0
 27 28  2  0  0  0
 28 32  1  0  0  0
 32 33  1  0  0  0
 33 34  1  0  0  0
 34 35  2  0  0  0
 35 36  1  0  0  0
 36 37  2  0  0  0
 37 38  1  0  0  0
 38 39  1  0  0  0
 38 40  2  0  0  0
 28 29  1  0  0  0
 29 30  1  0  0  0
 29 31  2  0  0  0
  7  8  2  0  0  0
  8  9  1  0  0  0
  9 10  2  0  0  0
 10 11  1  0  0  0
 11 12  1  0  0  0
 12 13  2  0  0  0
 12 15  1  0  0  0
 15 16  2  0  0  0
 16 17  1  0  0  0
 17 18  1  0  0  0
 18 19  1  0  0  0
 18 20  1  0  0  0
 10  1  1  0  0  0
  8  3  1  0  0  0
 31 25  1  0  0  0
 40 34  1  0  0  0
 23 24  1  0  0  0
 11 14  1  0  0  0
M  END
> <minimizedAffinity>
-7.65584

> <CNNscore>
0.4877952337

> <CNNaffinity>
7.6488280296

> <CNN_VS>
3.7310619354

> <CNNaffinity_variance>
0.1077460274

$$$$
[H]/C(C(=O)N([H])c1c(OC([H])([H])C([H])([H])[H])c([H])c2nc([H])c(C#N)c(N([H])c3c([H])c([H])c(OC([H])([H])c4c([H])c([H])c([H])c(F)c4[H])c(Cl)c3[H])c2c1[H])=C(/[H])C([H])([H])N(C([H])([H])[H])C([H])([H])[H]


 43 46  0  0  0  0  0  0  0  0999 V2000
   -0.5925  -52.2437  -18.2026 C   0  0  0  0  0  0  0  0  0  0  0  0
   -1.0150  -53.3007  -18.9553 C   0  0  0  0  0  0  0  0  0  0  0  0
   -0.7415  -53.3437  -20.3127 C   0  0  0  0  0  0  0  0  0  0  0  0
   -1.1566  -54.3851  -21.0616 N   0  0  0  0  0  0  0  0  0  0  0  0
   -0.9000  -54.4418  -22.3814 C   0  0  0  0  0  0  0  0  0  0  0  0
   -0.2022  -53.4511  -23.0550 C   0  0  0  0  0  0  0  0  0  0  0  0
    0.2283  -52.3805  -22.3004 C   0  0  0  0  0  0  0  0  0  0  0  0
   -0.0480  -52.3436  -20.9415 C   0  0  0  0  0  0  0  0  0  0  0  0
    0.3765  -51.2652  -20.1440 C   0  0  0  0  0  0  0  0  0  0  0  0
    0.1289  -51.1799  -18.7968 C   0  0  0  0  0  0  0  0  0  0  0  0
    0.5436  -50.1129  -17.9714 N   0  0  0  0  0  0  0  0  0  0  0  0
    1.8080  -49.9953  -17.3833 C   0  0  0  0  0  0  0  0  0  0  0  0
    2.7437  -50.8429  -17.5241 O   0  0  0  0  0  0  0  0  0  0  0  0
   -0.1917  -49.3515  -17.8026 H   0  0  0  0  0  0  0  0  0  0  0  0
    2.1120  -48.8401  -16.5476 C   0  0  0  0  0  0  0  0  0  0  0  0
    1.4421  -48.5749  -15.4661 C   0  0  0  0  0  0  0  0  0  0  0  0
    1.7955  -47.3662  -14.6341 C   0  0  0  0  0  0  0  0  0  0  0  0
    1.0809  -47.5130  -13.3911 N   0  0  0  0  0  0  0  0  0  0  0  0
    1.1532  -48.8758  -12.9016 C   0  0  0  0  0  0  0  0  0  0  0  0
   -0.2763  -47.0612  -13.5546 C   0  0  0  0  0  0  0  0  0  0  0  0
    0.0493  -53.5541  -24.4735 C   0  0  0  0  0  0  0  0  0  0  0  0
    0.2674  -53.6315  -25.6192 N   0  0  0  0  0  0  0  0  0  0  0  0
    0.9454  -51.3244  -22.9139 N   0  0  0  0  0  0  0  0  0  0  0  0
    0.4045  -50.6403  -23.4835 H   0  0  0  0  0  0  0  0  0  0  0  0
    2.3544  -51.1709  -22.7807 C   0  0  0  0  0  0  0  0  0  0  0  0
    2.8561  -50.2331  -21.9111 C   0  0  0  0  0  0  0  0  0  0  0  0
    4.2285  -50.0966  -21.7955 C   0  0  0  0  0  0  0  0  0  0  0  0
    5.1144  -50.8640  -22.5178 C   0  0  0  0  0  0  0  0  0  0  0  0
    4.6154  -51.8161  -23.4010 C   0  0  0  0  0  0  0  0  0  0  0  0
    5.6964  -52.8346  -24.3598 Cl  0  0  0  0  0  0  0  0  0  0  0  0
    3.2474  -51.9330  -23.4985 C   0  0  0  0  0  0  0  0  0  0  0  0
    6.4697  -50.7134  -22.3899 O   0  0  0  0  0  0  0  0  0  0  0  0
    7.1920  -50.2051  -21.3236 C   0  0  0  0  0  0  0  0  0  0  0  0
    7.3335  -48.7355  -21.2908 C   0  0  0  0  0  0  0  0  0  0  0  0
    7.8613  -48.0712  -22.3774 C   0  0  0  0  0  0  0  0  0  0  0  0
    8.0031  -46.6786  -22.3661 C   0  0  0  0  0  0  0  0  0  0  0  0
    7.6162  -45.9523  -21.2667 C   0  0  0  0  0  0  0  0  0  0  0  0
    7.0867  -46.6275  -20.1790 C   0  0  0  0  0  0  0  0  0  0  0  0
    6.6994  -45.9135  -19.0807 F   0  0  0  0  0  0  0  0  0  0  0  0
    6.9513  -47.9923  -20.1985 C   0  0  0  0  0  0  0  0  0  0  0  0
   -0.8463  -52.1700  -16.8607 O   0  0  0  0  0  0  0  0  0  0  0  0
   -1.9128  -50.5325  -15.4196 C   0  0  0  0  0  0  0  0  0  0  0  0
   -2.0086  -51.8242  -16.1992 C   0  0  0  0  0  0  0  0  0  0  0  0
 42 43  1  0  0  0
 43 41  1  0  0  0
 41  1  1  0  0  0
  1  2  2  0  0  0
  2  3  1  0  0  0
  3  4  2  0  0  0
  4  5  1  0  0  0
  5  6  2  0  0  0
  6 21  1  0  0  0
 21 22  3  0  0  0
  6  7  1  0  0  0
  7 23  1  0  0  0
 23 25  1  0  0  0
 25 26  2  0  0  0
 26 27  1  0  0  0
 27 28  2  0  0  0
 28 32  1  0  0  0
 32 33  1  0  0  0
 33 34  1  0  0  0
 34 35  2  0  0  0
 35 36  1  0  0  0
 36 37  2  0  0  0
 37 38  1  0  0  0
 38 39  1  0  0  0
 38 40  2  0  0  0
 28 29  1  0  0  0
 29 30  1  0  0  0
 29 31  2  0  0  0
  7  8  2  0  0  0
  8  9  1  0  0  0
  9 10  2  0  0  0
 10 11  1  0  0  0
 11 12  1  0  0  0
 12 13  2  0  0  0
 12 15  1  0  0  0
 15 16  2  0  0  0
 16 17  1  0  0  0
 17 18  1  0  0  0
 18 19  1  0  0  0
 18 20  1  0  0  0
 10  1  1  0  0  0
  8  3  1  0  0  0
 31 25  1  0  0  0
 40 34  1  0  0  0
 23 24  1  0  0  0
 11 14  1  0  0  0
M  END
> <minimizedAffinity>
-6.49552

> <CNNscore>
0.4855470657

> <CNNaffinity>
7.4830207825

> <CNN_VS>
3.6333587170

> <CNNaffinity_variance>
0.1623221040

$$$$
[H]/C(C(=O)N([H])c1c(OC([H])([H])C([H])([H])[H])c([H])c2nc([H])c(C#N)c(N([H])c3c([H])c([H])c(OC([H])([H])c4c([H])c([H])c([H])c(F)c4[H])c(Cl)c3[H])c2c1[H])=C(/[H])C([H])([H])N(C([H])([H])[H])C([H])([H])[H]


 43 46  0  0  0  0  0  0  0  0999 V2000
    3.0350  -50.0396  -25.2209 C   0  0  0  0  0  0  0  0  0  0  0  0
    1.8945  -50.5644  -25.7559 C   0  0  0  0  0  0  0  0  0  0  0  0
    1.1574  -51.4987  -25.0467 C   0  0  0  0  0  0  0  0  0  0  0  0
    0.0299  -52.0209  -25.5701 N   0  0  0  0  0  0  0  0  0  0  0  0
   -0.6970  -52.9300  -24.8949 C   0  0  0  0  0  0  0  0  0  0  0  0
   -0.3459  -53.3873  -23.6340 C   0  0  0  0  0  0  0  0  0  0  0  0
    0.8051  -52.8607  -23.0872 C   0  0  0  0  0  0  0  0  0  0  0  0
    1.5384  -51.9249  -23.8018 C   0  0  0  0  0  0  0  0  0  0  0  0
    2.7174  -51.3693  -23.2725 C   0  0  0  0  0  0  0  0  0  0  0  0
    3.4792  -50.4417  -23.9379 C   0  0  0  0  0  0  0  0  0  0  0  0
    4.6640  -49.8655  -23.4319 N   0  0  0  0  0  0  0  0  0  0  0  0
    4.7314  -48.9919  -22.3408 C   0  0  0  0  0  0  0  0  0  0  0  0
    3.7241  -48.6096  -21.6676 O   0  0  0  0  0  0  0  0  0  0  0  0
    5.5632  -50.1394  -23.9470 H   0  0  0  0  0  0  0  0  0  0  0  0
    6.0220  -48.4634  -21.9163 C   0  0  0  0  0  0  0  0  0  0  0  0
    6.1420  -47.2897  -21.3714 C   0  0  0  0  0  0  0  0  0  0  0  0
    7.5009  -46.7869  -20.9486 C   0  0  0  0  0  0  0  0  0  0  0  0
    7.2952  -46.0630  -19.7194 N   0  0  0  0  0  0  0  0  0  0  0  0
    7.2346  -46.9626  -18.5840 C   0  0  0  0  0  0  0  0  0  0  0  0
    6.1180  -45.2414  -19.8305 C   0  0  0  0  0  0  0  0  0  0  0  0
   -1.1568  -54.3651  -22.9467 C   0  0  0  0  0  0  0  0  0  0  0  0
   -1.8136  -55.1469  -22.3779 N   0  0  0  0  0  0  0  0  0  0  0  0
    1.2347  -53.2783  -21.8039 N   0  0  0  0  0  0  0  0  0  0  0  0
    1.9054  -54.0738  -21.7542 H   0  0  0  0  0  0  0  0  0  0  0  0
    0.7878  -52.6588  -20.6026 C   0  0  0  0  0  0  0  0  0  0  0  0
   -0.1228  -53.3058  -19.8029 C   0  0  0  0  0  0  0  0  0  0  0  0
   -0.5472  -52.6880  -18.6395 C   0  0  0  0  0  0  0  0  0  0  0  0
   -0.0933  -51.4482  -18.2490 C   0  0  0  0  0  0  0  0  0  0  0  0
    0.8288  -50.7854  -19.0527 C   0  0  0  0  0  0  0  0  0  0  0  0
    1.4525  -49.1912  -18.6115 Cl  0  0  0  0  0  0  0  0  0  0  0  0
    1.2356  -51.4200  -20.2045 C   0  0  0  0  0  0  0  0  0  0  0  0
   -0.5260  -50.8528  -17.0941 O   0  0  0  0  0  0  0  0  0  0  0  0
   -0.7082  -51.4136  -15.8413 C   0  0  0  0  0  0  0  0  0  0  0  0
    0.5143  -51.5695  -15.0276 C   0  0  0  0  0  0  0  0  0  0  0  0
    0.4912  -52.3565  -13.8959 C   0  0  0  0  0  0  0  0  0  0  0  0
    1.6395  -52.5174  -13.1117 C   0  0  0  0  0  0  0  0  0  0  0  0
    2.8100  -51.8902  -13.4612 C   0  0  0  0  0  0  0  0  0  0  0  0
    2.8249  -51.1011  -14.6000 C   0  0  0  0  0  0  0  0  0  0  0  0
    3.9845  -50.4728  -14.9554 F   0  0  0  0  0  0  0  0  0  0  0  0
    1.6950  -50.9489  -15.3628 C   0  0  0  0  0  0  0  0  0  0  0  0
    3.7860  -49.1162  -25.8946 O   0  0  0  0  0  0  0  0  0  0  0  0
    3.5414  -46.8284  -25.1188 C   0  0  0  0  0  0  0  0  0  0  0  0
    3.4753  -47.8201  -26.2578 C   0  0  0  0  0  0  0  0  0  0  0  0
 42 43  1  0  0  0
 43 41  1  0  0  0
 41  1  1  0  0  0
  1  2  2  0  0  0
  2  3  1  0  0  0
  3  4  2  0  0  0
  4  5  1  0  0  0
  5  6  2  0  0  0
  6 21  1  0  0  0
 21 22  3  0  0  0
  6  7  1  0  0  0
  7 23  1  0  0  0
 23 25  1  0  0  0
 25 26  2  0  0  0
 26 27  1  0  0  0
 27 28  2  0  0  0
 28 32  1  0  0  0
 32 33  1  0  0  0
 33 34  1  0  0  0
 34 35  2  0  0  0
 35 36  1  0  0  0
 36 37  2  0  0  0
 37 38  1  0  0  0
 38 39  1  0  0  0
 38 40  2  0  0  0
 28 29  1  0  0  0
 29 30  1  0  0  0
 29 31  2  0  0  0
  7  8  2  0  0  0
  8  9  1  0  0  0
  9 10  2  0  0  0
 10 11  1  0  0  0
 11 12  1  0  0  0
 12 13  2  0  0  0
 12 15  1  0  0  0
 15 16  2  0  0  0
 16 17  1  0  0  0
 17 18  1  0  0  0
 18 19  1  0  0  0
 18 20  1  0  0  0
 10  1  1  0  0  0
  8  3  1  0  0  0
 31 25  1  0  0  0
 40 34  1  0  0  0
 23 24  1  0  0  0
 11 14  1  0  0  0
M  END
> <minimizedAffinity>
-6.48716

> <CNNscore>
0.4500775933

> <CNNaffinity>
7.6412572861

> <CNN_VS>
3.4391586781

> <CNNaffinity_variance>
0.1743099242

$$$$
[H]/C(C(=O)N([H])c1c(OC([H])([H])C([H])([H])[H])c([H])c2nc([H])c(C#N)c(N([H])c3c([H])c([H])c(OC([H])([H])c4c([H])c([H])c([H])c(F)c4[H])c(Cl)c3[H])c2c1[H])=C(/[H])C([H])([H])N(C([H])([H])[H])C([H])([H])[H]


 43 46  0  0  0  0  0  0  0  0999 V2000
   -0.7153  -52.8941  -19.2257 C   0  0  0  0  0  0  0  0  0  0  0  0
   -1.2078  -53.9123  -19.9893 C   0  0  0  0  0  0  0  0  0  0  0  0
   -0.9733  -53.9366  -21.3545 C   0  0  0  0  0  0  0  0  0  0  0  0
   -1.4575  -54.9397  -22.1141 N   0  0  0  0  0  0  0  0  0  0  0  0
   -1.2395  -54.9777  -23.4415 C   0  0  0  0  0  0  0  0  0  0  0  0
   -0.5138  -54.0054  -24.1125 C   0  0  0  0  0  0  0  0  0  0  0  0
   -0.0127  -52.9740  -23.3469 C   0  0  0  0  0  0  0  0  0  0  0  0
   -0.2502  -52.9557  -21.9803 C   0  0  0  0  0  0  0  0  0  0  0  0
    0.2464  -51.9173  -21.1716 C   0  0  0  0  0  0  0  0  0  0  0  0
    0.0395  -51.8518  -19.8165 C   0  0  0  0  0  0  0  0  0  0  0  0
    0.5265  -50.8249  -18.9797 N   0  0  0  0  0  0  0  0  0  0  0  0
    1.8364  -50.7354  -18.4952 C   0  0  0  0  0  0  0  0  0  0  0  0
    2.7534  -51.5757  -18.7538 O   0  0  0  0  0  0  0  0  0  0  0  0
   -0.1887  -50.0721  -18.7142 H   0  0  0  0  0  0  0  0  0  0  0  0
    2.2144  -49.6208  -17.6349 C   0  0  0  0  0  0  0  0  0  0  0  0
    3.0450  -48.6998  -18.0232 C   0  0  0  0  0  0  0  0  0  0  0  0
    3.4050  -47.5654  -17.0951 C   0  0  0  0  0  0  0  0  0  0  0  0
    4.0942  -46.5907  -17.9028 N   0  0  0  0  0  0  0  0  0  0  0  0
    3.5112  -46.4995  -19.2271 C   0  0  0  0  0  0  0  0  0  0  0  0
    5.4998  -46.8998  -17.9434 C   0  0  0  0  0  0  0  0  0  0  0  0
   -0.3058  -54.0871  -25.5393 C   0  0  0  0  0  0  0  0  0  0  0  0
   -0.1263  -54.1643  -26.6918 N   0  0  0  0  0  0  0  0  0  0  0  0
    0.7370  -51.9388  -23.9570 N   0  0  0  0  0  0  0  0  0  0  0  0
    0.2107  -51.1893  -24.4533 H   0  0  0  0  0  0  0  0  0  0  0  0
    2.1591  -51.8906  -23.9156 C   0  0  0  0  0  0  0  0  0  0  0  0
    2.8840  -52.2726  -25.0184 C   0  0  0  0  0  0  0  0  0  0  0  0
    4.2657  -52.2205  -24.9598 C   0  0  0  0  0  0  0  0  0  0  0  0
    4.9461  -51.8005  -23.8390 C   0  0  0  0  0  0  0  0  0  0  0  0
    4.2204  -51.4120  -22.7175 C   0  0  0  0  0  0  0  0  0  0  0  0
    5.0302  -50.8628  -21.2450 Cl  0  0  0  0  0  0  0  0  0  0  0  0
    2.8477  -51.4725  -22.7999 C   0  0  0  0  0  0  0  0  0  0  0  0
    6.3144  -51.7569  -23.8003 O   0  0  0  0  0  0  0  0  0  0  0  0
    7.1440  -50.6759  -23.5547 C   0  0  0  0  0  0  0  0  0  0  0  0
    6.9990  -49.5360  -24.4823 C   0  0  0  0  0  0  0  0  0  0  0  0
    7.7880  -49.4629  -25.6105 C   0  0  0  0  0  0  0  0  0  0  0  0
    7.6654  -48.3909  -26.5023 C   0  0  0  0  0  0  0  0  0  0  0  0
    6.7528  -47.3930  -26.2638 C   0  0  0  0  0  0  0  0  0  0  0  0
    5.9636  -47.4739  -25.1280 C   0  0  0  0  0  0  0  0  0  0  0  0
    5.0532  -46.4857  -24.8821 F   0  0  0  0  0  0  0  0  0  0  0  0
    6.0904  -48.5280  -24.2593 C   0  0  0  0  0  0  0  0  0  0  0  0
   -0.9291  -52.8398  -17.8759 O   0  0  0  0  0  0  0  0  0  0  0  0
   -2.1988  -51.7660  -16.1066 C   0  0  0  0  0  0  0  0  0  0  0  0
   -2.1158  -52.8385  -17.1688 C   0  0  0  0  0  0  0  0  0  0  0  0
 42 43  1  0  0  0
 43 41  1  0  0  0
 41  1  1  0  0  0
  1  2  2  0  0  0
  2  3  1  0  0  0
  3  4  2  0  0  0
  4  5  1  0  0  0
  5  6  2  0  0  0
  6 21  1  0  0  0
 21 22  3  0  0  0
  6  7  1  0  0  0
  7 23  1  0  0  0
 23 25  1  0  0  0
 25 26  2  0  0  0
 26 27  1  0  0  0
 27 28  2  0  0  0
 28 32  1  0  0  0
 32 33  1  0  0  0
 33 34  1  0  0  0
 34 35  2  0  0  0
 35 36  1  0  0  0
 36 37  2  0  0  0
 37 38  1  0  0  0
 38 39  1  0  0  0
 38 40  2  0  0  0
 28 29  1  0  0  0
 29 30  1  0  0  0
 29 31  2  0  0  0
  7  8  2  0  0  0
  8  9  1  0  0  0
  9 10  2  0  0  0
 10 11  1  0  0  0
 11 12  1  0  0  0
 12 13  2  0  0  0
 12 15  1  0  0  0
 15 16  2  0  0  0
 16 17  1  0  0  0
 17 18  1  0  0  0
 18 19  1  0  0  0
 18 20  1  0  0  0
 10  1  1  0  0  0
  8  3  1  0  0  0
 31 25  1  0  0  0
 40 34  1  0  0  0
 23 24  1  0  0  0
 11 14  1  0  0  0
M  END
> <minimizedAffinity>
-7.50416

> <CNNscore>
0.4463987052

> <CNNaffinity>
7.7282562256

> <CNN_VS>
3.4498834610

> <CNNaffinity_variance>
0.0604617111

$$$$
[H]/C(C(=O)N([H])c1c(OC([H])([H])C([H])([H])[H])c([H])c2nc([H])c(C#N)c(N([H])c3c([H])c([H])c(OC([H])([H])c4c([H])c([H])c([H])c(F)c4[H])c(Cl)c3[H])c2c1[H])=C(/[H])C([H])([H])N(C([H])([H])[H])C([H])([H])[H]


 43 46  0  0  0  0  0  0  0  0999 V2000
   -0.3746  -52.9002  -19.7232 C   0  0  0  0  0  0  0  0  0  0  0  0
   -0.7808  -53.9281  -20.5238 C   0  0  0  0  0  0  0  0  0  0  0  0
   -0.6278  -53.8440  -21.8981 C   0  0  0  0  0  0  0  0  0  0  0  0
   -1.0274  -54.8561  -22.6942 N   0  0  0  0  0  0  0  0  0  0  0  0
   -0.8868  -54.7899  -24.0308 C   0  0  0  0  0  0  0  0  0  0  0  0
   -0.3303  -53.6956  -24.6751 C   0  0  0  0  0  0  0  0  0  0  0  0
    0.0829  -52.6537  -23.8722 C   0  0  0  0  0  0  0  0  0  0  0  0
   -0.0722  -52.7441  -22.4967 C   0  0  0  0  0  0  0  0  0  0  0  0
    0.3382  -51.6983  -21.6501 C   0  0  0  0  0  0  0  0  0  0  0  0
    0.2067  -51.7374  -20.2846 C   0  0  0  0  0  0  0  0  0  0  0  0
    0.6108  -50.7057  -19.4103 N   0  0  0  0  0  0  0  0  0  0  0  0
    1.8479  -50.6417  -18.7592 C   0  0  0  0  0  0  0  0  0  0  0  0
    2.7649  -51.5126  -18.8790 O   0  0  0  0  0  0  0  0  0  0  0  0
   -0.1099  -49.9277  -19.2554 H   0  0  0  0  0  0  0  0  0  0  0  0
    2.1435  -49.5189  -17.8776 C   0  0  0  0  0  0  0  0  0  0  0  0
    1.4285  -49.2622  -16.8232 C   0  0  0  0  0  0  0  0  0  0  0  0
    1.7752  -48.0875  -15.9413 C   0  0  0  0  0  0  0  0  0  0  0  0
    0.6763  -47.9402  -15.0204 N   0  0  0  0  0  0  0  0  0  0  0  0
   -0.5687  -48.3887  -15.6126 C   0  0  0  0  0  0  0  0  0  0  0  0
    0.6052  -46.5769  -14.5628 C   0  0  0  0  0  0  0  0  0  0  0  0
   -0.2000  -53.6683  -26.1133 C   0  0  0  0  0  0  0  0  0  0  0  0
   -0.0968  -53.6305  -27.2770 N   0  0  0  0  0  0  0  0  0  0  0  0
    0.6589  -51.4975  -24.4530 N   0  0  0  0  0  0  0  0  0  0  0  0
    0.0233  -50.8394  -24.9511 H   0  0  0  0  0  0  0  0  0  0  0  0
    2.0515  -51.2113  -24.3804 C   0  0  0  0  0  0  0  0  0  0  0  0
    2.4880  -49.9179  -24.5356 C   0  0  0  0  0  0  0  0  0  0  0  0
    3.8454  -49.6583  -24.4633 C   0  0  0  0  0  0  0  0  0  0  0  0
    4.7794  -50.6452  -24.2415 C   0  0  0  0  0  0  0  0  0  0  0  0
    4.3466  -51.9579  -24.0833 C   0  0  0  0  0  0  0  0  0  0  0  0
    5.4918  -53.2738  -23.7964 Cl  0  0  0  0  0  0  0  0  0  0  0  0
    2.9921  -52.1910  -24.1593 C   0  0  0  0  0  0  0  0  0  0  0  0
    6.1189  -50.3682  -24.1741 O   0  0  0  0  0  0  0  0  0  0  0  0
    6.9303  -50.2611  -23.0573 C   0  0  0  0  0  0  0  0  0  0  0  0
    6.3994  -49.4275  -21.9599 C   0  0  0  0  0  0  0  0  0  0  0  0
    5.9158  -50.0244  -20.8151 C   0  0  0  0  0  0  0  0  0  0  0  0
    5.4090  -49.2518  -19.7636 C   0  0  0  0  0  0  0  0  0  0  0  0
    5.3868  -47.8822  -19.8591 C   0  0  0  0  0  0  0  0  0  0  0  0
    5.8747  -47.2901  -21.0128 C   0  0  0  0  0  0  0  0  0  0  0  0
    5.8563  -45.9282  -21.1171 F   0  0  0  0  0  0  0  0  0  0  0  0
    6.3695  -48.0548  -22.0384 C   0  0  0  0  0  0  0  0  0  0  0  0
   -0.5118  -52.9509  -18.3634 O   0  0  0  0  0  0  0  0  0  0  0  0
   -1.5359  -51.8587  -16.4518 C   0  0  0  0  0  0  0  0  0  0  0  0
   -1.6494  -52.8518  -17.5860 C   0  0  0  0  0  0  0  0  0  0  0  0
 42 43  1  0  0  0
 43 41  1  0  0  0
 41  1  1  0  0  0
  1  2  2  0  0  0
  2  3  1  0  0  0
  3  4  2  0  0  0
  4  5  1  0  0  0
  5  6  2  0  0  0
  6 21  1  0  0  0
 21 22  3  0  0  0
  6  7  1  0  0  0
  7 23  1  0  0  0
 23 25  1  0  0  0
 25 26  2  0  0  0
 26 27  1  0  0  0
 27 28  2  0  0  0
 28 32  1  0  0  0
 32 33  1  0  0  0
 33 34  1  0  0  0
 34 35  2  0  0  0
 35 36  1  0  0  0
 36 37  2  0  0  0
 37 38  1  0  0  0
 38 39  1  0  0  0
 38 40  2  0  0  0
 28 29  1  0  0  0
 29 30  1  0  0  0
 29 31  2  0  0  0
  7  8  2  0  0  0
  8  9  1  0  0  0
  9 10  2  0  0  0
 10 11  1  0  0  0
 11 12  1  0  0  0
 12 13  2  0  0  0
 12 15  1  0  0  0
 15 16  2  0  0  0
 16 17  1  0  0  0
 17 18  1  0  0  0
 18 19  1  0  0  0
 18 20  1  0  0  0
 10  1  1  0  0  0
  8  3  1  0  0  0
 31 25  1  0  0  0
 40 34  1  0  0  0
 23 24  1  0  0  0
 11 14  1  0  0  0
M  END
> <minimizedAffinity>
-7.06033

> <CNNscore>
0.4156320095

> <CNNaffinity>
7.6184082031

> <CNN_VS>
3.1664543152

> <CNNaffinity_variance>
0.1755655110

$$$$
[H]/C(C(=O)N([H])c1c(OC([H])([H])C([H])([H])[H])c([H])c2nc([H])c(C#N)c(N([H])c3c([H])c([H])c(OC([H])([H])c4c([H])c([H])c([H])c(F)c4[H])c(Cl)c3[H])c2c1[H])=C(/[H])C([H])([H])N(C([H])([H])[H])C([H])([H])[H]


 43 46  0  0  0  0  0  0  0  0999 V2000
    2.9497  -49.9536  -25.4587 C   0  0  0  0  0  0  0  0  0  0  0  0
    1.7908  -50.5297  -25.8916 C   0  0  0  0  0  0  0  0  0  0  0  0
    1.1140  -51.4280  -25.0827 C   0  0  0  0  0  0  0  0  0  0  0  0
   -0.0312  -52.0006  -25.5051 N   0  0  0  0  0  0  0  0  0  0  0  0
   -0.7003  -52.8757  -24.7321 C   0  0  0  0  0  0  0  0  0  0  0  0
   -0.2685  -53.2451  -23.4675 C   0  0  0  0  0  0  0  0  0  0  0  0
    0.9014  -52.6662  -23.0235 C   0  0  0  0  0  0  0  0  0  0  0  0
    1.5741  -51.7670  -23.8377 C   0  0  0  0  0  0  0  0  0  0  0  0
    2.7704  -51.1598  -23.4146 C   0  0  0  0  0  0  0  0  0  0  0  0
    3.4745  -50.2651  -24.1809 C   0  0  0  0  0  0  0  0  0  0  0  0
    4.6750  -49.6388  -23.7827 N   0  0  0  0  0  0  0  0  0  0  0  0
    4.7729  -48.6219  -22.8262 C   0  0  0  0  0  0  0  0  0  0  0  0
    3.7832  -48.1365  -22.1948 O   0  0  0  0  0  0  0  0  0  0  0  0
    5.5608  -49.9935  -24.2708 H   0  0  0  0  0  0  0  0  0  0  0  0
    6.0770  -48.0556  -22.5040 C   0  0  0  0  0  0  0  0  0  0  0  0
    6.2322  -47.1695  -21.5662 C   0  0  0  0  0  0  0  0  0  0  0  0
    7.6036  -46.6130  -21.2703 C   0  0  0  0  0  0  0  0  0  0  0  0
    7.5945  -46.2463  -19.8764 N   0  0  0  0  0  0  0  0  0  0  0  0
    7.8189  -47.4005  -19.0283 C   0  0  0  0  0  0  0  0  0  0  0  0
    6.3656  -45.5656  -19.5611 C   0  0  0  0  0  0  0  0  0  0  0  0
   -1.0194  -54.1892  -22.6733 C   0  0  0  0  0  0  0  0  0  0  0  0
   -1.6249  -54.9443  -22.0178 N   0  0  0  0  0  0  0  0  0  0  0  0
    1.4120  -52.9934  -21.7436 N   0  0  0  0  0  0  0  0  0  0  0  0
    2.0893  -53.7823  -21.6810 H   0  0  0  0  0  0  0  0  0  0  0  0
    1.0364  -52.2931  -20.5624 C   0  0  0  0  0  0  0  0  0  0  0  0
    0.1604  -52.8743  -19.6780 C   0  0  0  0  0  0  0  0  0  0  0  0
   -0.1947  -52.1784  -18.5356 C   0  0  0  0  0  0  0  0  0  0  0  0
    0.2950  -50.9243  -18.2477 C   0  0  0  0  0  0  0  0  0  0  0  0
    1.1824  -50.3279  -19.1377 C   0  0  0  0  0  0  0  0  0  0  0  0
    1.8489  -48.7196  -18.8302 Cl  0  0  0  0  0  0  0  0  0  0  0  0
    1.5204  -51.0394  -20.2665 C   0  0  0  0  0  0  0  0  0  0  0  0
   -0.0692  -50.2513  -17.1119 O   0  0  0  0  0  0  0  0  0  0  0  0
   -0.5162  -50.7602  -15.9044 C   0  0  0  0  0  0  0  0  0  0  0  0
   -1.9773  -50.7159  -15.6943 C   0  0  0  0  0  0  0  0  0  0  0  0
   -2.5590  -49.5941  -15.1432 C   0  0  0  0  0  0  0  0  0  0  0  0
   -3.9421  -49.5323  -14.9366 C   0  0  0  0  0  0  0  0  0  0  0  0
   -4.7417  -50.5938  -15.2822 C   0  0  0  0  0  0  0  0  0  0  0  0
   -4.1494  -51.7174  -15.8356 C   0  0  0  0  0  0  0  0  0  0  0  0
   -4.9367  -52.7785  -16.1822 F   0  0  0  0  0  0  0  0  0  0  0  0
   -2.7932  -51.7695  -16.0346 C   0  0  0  0  0  0  0  0  0  0  0  0
    3.6426  -49.0637  -26.2323 O   0  0  0  0  0  0  0  0  0  0  0  0
    4.8207  -46.9467  -26.3924 C   0  0  0  0  0  0  0  0  0  0  0  0
    3.5072  -47.6931  -26.3388 C   0  0  0  0  0  0  0  0  0  0  0  0
 42 43  1  0  0  0
 43 41  1  0  0  0
 41  1  1  0  0  0
  1  2  2  0  0  0
  2  3  1  0  0  0
  3  4  2  0  0  0
  4  5  1  0  0  0
  5  6  2  0  0  0
  6 21  1  0  0  0
 21 22  3  0  0  0
  6  7  1  0  0  0
  7 23  1  0  0  0
 23 25  1  0  0  0
 25 26  2  0  0  0
 26 27  1  0  0  0
 27 28  2  0  0  0
 28 32  1  0  0  0
 32 33  1  0  0  0
 33 34  1  0  0  0
 34 35  2  0  0  0
 35 36  1  0  0  0
 36 37  2  0  0  0
 37 38  1  0  0  0
 38 39  1  0  0  0
 38 40  2  0  0  0
 28 29  1  0  0  0
 29 30  1  0  0  0
 29 31  2  0  0  0
  7  8  2  0  0  0
  8  9  1  0  0  0
  9 10  2  0  0  0
 10 11  1  0  0  0
 11 12  1  0  0  0
 12 13  2  0  0  0
 12 15  1  0  0  0
 15 16  2  0  0  0
 16 17  1  0  0  0
 17 18  1  0  0  0
 18 19  1  0  0  0
 18 20  1  0  0  0
 10  1  1  0  0  0
  8  3  1  0  0  0
 31 25  1  0  0  0
 40 34  1  0  0  0
 23 24  1  0  0  0
 11 14  1  0  0  0
M  END
> <minimizedAffinity>
-6.97461

> <CNNscore>
0.4065251350

> <CNNaffinity>
7.4889283180

> <CNN_VS>
3.0444376469

> <CNNaffinity_variance>
0.1659328640

$$$$
[H]/C(C(=O)N([H])c1c(OC([H])([H])C([H])([H])[H])c([H])c2nc([H])c(C#N)c(N([H])c3c([H])c([H])c(OC([H])([H])c4c([H])c([H])c([H])c(F)c4[H])c(Cl)c3[H])c2c1[H])=C(/[H])C([H])([H])N(C([H])([H])[H])C([H])([H])[H]


 43 46  0  0  0  0  0  0  0  0999 V2000
    3.1080  -49.8645  -24.9775 C   0  0  0  0  0  0  0  0  0  0  0  0
    1.9829  -50.3971  -25.5369 C   0  0  0  0  0  0  0  0  0  0  0  0
    1.2510  -51.3549  -24.8541 C   0  0  0  0  0  0  0  0  0  0  0  0
    0.1389  -51.8850  -25.4017 N   0  0  0  0  0  0  0  0  0  0  0  0
   -0.5828  -52.8168  -24.7522 C   0  0  0  0  0  0  0  0  0  0  0  0
   -0.2413  -53.2908  -23.4948 C   0  0  0  0  0  0  0  0  0  0  0  0
    0.8940  -52.7564  -22.9234 C   0  0  0  0  0  0  0  0  0  0  0  0
    1.6221  -51.7971  -23.6117 C   0  0  0  0  0  0  0  0  0  0  0  0
    2.7853  -51.2329  -23.0569 C   0  0  0  0  0  0  0  0  0  0  0  0
    3.5413  -50.2822  -23.6957 C   0  0  0  0  0  0  0  0  0  0  0  0
    4.7103  -49.6970  -23.1639 N   0  0  0  0  0  0  0  0  0  0  0  0
    5.5927  -50.3251  -22.2777 C   0  0  0  0  0  0  0  0  0  0  0  0
    5.4463  -51.5094  -21.8422 O   0  0  0  0  0  0  0  0  0  0  0  0
    4.9068  -48.6933  -23.4842 H   0  0  0  0  0  0  0  0  0  0  0  0
    6.7687  -49.6087  -21.7993 C   0  0  0  0  0  0  0  0  0  0  0  0
    6.7583  -48.3260  -21.5909 C   0  0  0  0  0  0  0  0  0  0  0  0
    8.0022  -47.6297  -21.0950 C   0  0  0  0  0  0  0  0  0  0  0  0
    7.7406  -47.2713  -19.7237 N   0  0  0  0  0  0  0  0  0  0  0  0
    7.9748  -48.3920  -18.8342 C   0  0  0  0  0  0  0  0  0  0  0  0
    6.4047  -46.7476  -19.6047 C   0  0  0  0  0  0  0  0  0  0  0  0
   -1.0460  -54.2927  -22.8357 C   0  0  0  0  0  0  0  0  0  0  0  0
   -1.6945  -55.0966  -22.2883 N   0  0  0  0  0  0  0  0  0  0  0  0
    1.3130  -53.1899  -21.6419 N   0  0  0  0  0  0  0  0  0  0  0  0
    1.8954  -54.0519  -21.5901 H   0  0  0  0  0  0  0  0  0  0  0  0
    0.9700  -52.4995  -20.4451 C   0  0  0  0  0  0  0  0  0  0  0  0
    1.6552  -51.3604  -20.0980 C   0  0  0  0  0  0  0  0  0  0  0  0
    1.3092  -50.7030  -18.9303 C   0  0  0  0  0  0  0  0  0  0  0  0
    0.3039  -51.1443  -18.0996 C   0  0  0  0  0  0  0  0  0  0  0  0
   -0.3952  -52.2971  -18.4430 C   0  0  0  0  0  0  0  0  0  0  0  0
   -1.6971  -52.9196  -17.4217 Cl  0  0  0  0  0  0  0  0  0  0  0  0
   -0.0329  -52.9332  -19.6087 C   0  0  0  0  0  0  0  0  0  0  0  0
   -0.0232  -50.4800  -16.9475 O   0  0  0  0  0  0  0  0  0  0  0  0
    0.3832  -49.2275  -16.5199 C   0  0  0  0  0  0  0  0  0  0  0  0
   -0.5643  -48.5148  -15.6394 C   0  0  0  0  0  0  0  0  0  0  0  0
   -0.1731  -47.3560  -15.0032 C   0  0  0  0  0  0  0  0  0  0  0  0
   -1.0564  -46.6656  -14.1651 C   0  0  0  0  0  0  0  0  0  0  0  0
   -2.3309  -47.1360  -13.9647 C   0  0  0  0  0  0  0  0  0  0  0  0
   -2.7163  -48.3011  -14.6078 C   0  0  0  0  0  0  0  0  0  0  0  0
   -3.9820  -48.7770  -14.4142 F   0  0  0  0  0  0  0  0  0  0  0  0
   -1.8441  -48.9713  -15.4274 C   0  0  0  0  0  0  0  0  0  0  0  0
    3.8535  -48.9180  -25.6248 O   0  0  0  0  0  0  0  0  0  0  0  0
    3.3874  -46.9471  -26.9641 C   0  0  0  0  0  0  0  0  0  0  0  0
    3.7275  -48.4190  -26.9067 C   0  0  0  0  0  0  0  0  0  0  0  0
 42 43  1  0  0  0
 43 41  1  0  0  0
 41  1  1  0  0  0
  1  2  2  0  0  0
  2  3  1  0  0  0
  3  4  2  0  0  0
  4  5  1  0  0  0
  5  6  2  0  0  0
  6 21  1  0  0  0
 21 22  3  0  0  0
  6  7  1  0  0  0
  7 23  1  0  0  0
 23 25  1  0  0  0
 25 26  2  0  0  0
 26 27  1  0  0  0
 27 28  2  0  0  0
 28 32  1  0  0  0
 32 33  1  0  0  0
 33 34  1  0  0  0
 34 35  2  0  0  0
 35 36  1  0  0  0
 36 37  2  0  0  0
 37 38  1  0  0  0
 38 39  1  0  0  0
 38 40  2  0  0  0
 28 29  1  0  0  0
 29 30  1  0  0  0
 29 31  2  0  0  0
  7  8  2  0  0  0
  8  9  1  0  0  0
  9 10  2  0  0  0
 10 11  1  0  0  0
 11 12  1  0  0  0
 12 13  2  0  0  0
 12 15  1  0  0  0
 15 16  2  0  0  0
 16 17  1  0  0  0
 17 18  1  0  0  0
 18 19  1  0  0  0
 18 20  1  0  0  0
 10  1  1  0  0  0
  8  3  1  0  0  0
 31 25  1  0  0  0
 40 34  1  0  0  0
 23 24  1  0  0  0
 11 14  1  0  0  0
M  END
> <minimizedAffinity>
-6.67336

> <CNNscore>
0.3829805255

> <CNNaffinity>
7.4123053551

> <CNN_VS>
2.8387684822

> <CNNaffinity_variance>
0.1543551087

$$$$
[H]/C(C(=O)N([H])c1c(OC([H])([H])C([H])([H])[H])c([H])c2nc([H])c(C#N)c(N([H])c3c([H])c([H])c(OC([H])([H])c4c([H])c([H])c([H])c(F)c4[H])c(Cl)c3[H])c2c1[H])=C(/[H])C([H])([H])N(C([H])([H])[H])C([H])([H])[H]


 43 46  0  0  0  0  0  0  0  0999 V2000
   -0.3683  -52.9580  -19.4161 C   0  0  0  0  0  0  0  0  0  0  0  0
   -0.6922  -54.0248  -20.2032 C   0  0  0  0  0  0  0  0  0  0  0  0
   -0.6530  -53.9105  -21.5833 C   0  0  0  0  0  0  0  0  0  0  0  0
   -0.9722  -54.9608  -22.3661 N   0  0  0  0  0  0  0  0  0  0  0  0
   -0.9401  -54.8662  -23.7081 C   0  0  0  0  0  0  0  0  0  0  0  0
   -0.5824  -53.7026  -24.3715 C   0  0  0  0  0  0  0  0  0  0  0  0
   -0.2533  -52.6209  -23.5824 C   0  0  0  0  0  0  0  0  0  0  0  0
   -0.2936  -52.7418  -22.2011 C   0  0  0  0  0  0  0  0  0  0  0  0
    0.0355  -51.6570  -21.3680 C   0  0  0  0  0  0  0  0  0  0  0  0
    0.0109  -51.7237  -19.9975 C   0  0  0  0  0  0  0  0  0  0  0  0
    0.3377  -50.6541  -19.1367 N   0  0  0  0  0  0  0  0  0  0  0  0
    1.6316  -50.3263  -18.7164 C   0  0  0  0  0  0  0  0  0  0  0  0
    2.6777  -50.9581  -19.0634 O   0  0  0  0  0  0  0  0  0  0  0  0
   -0.4934  -50.0684  -18.7975 H   0  0  0  0  0  0  0  0  0  0  0  0
    1.8360  -49.1933  -17.8220 C   0  0  0  0  0  0  0  0  0  0  0  0
    1.5229  -49.2433  -16.5618 C   0  0  0  0  0  0  0  0  0  0  0  0
    1.7539  -48.0431  -15.6763 C   0  0  0  0  0  0  0  0  0  0  0  0
    2.0214  -48.5630  -14.3590 N   0  0  0  0  0  0  0  0  0  0  0  0
    3.4311  -48.8536  -14.1853 C   0  0  0  0  0  0  0  0  0  0  0  0
    1.1908  -49.7130  -14.1126 C   0  0  0  0  0  0  0  0  0  0  0  0
   -0.5627  -53.6471  -25.8146 C   0  0  0  0  0  0  0  0  0  0  0  0
   -0.5440  -53.6179  -26.9830 N   0  0  0  0  0  0  0  0  0  0  0  0
    0.1202  -51.3938  -24.1828 N   0  0  0  0  0  0  0  0  0  0  0  0
   -0.6428  -50.7592  -24.4996 H   0  0  0  0  0  0  0  0  0  0  0  0
    1.4781  -51.0071  -24.3648 C   0  0  0  0  0  0  0  0  0  0  0  0
    2.1036  -51.2663  -25.5602 C   0  0  0  0  0  0  0  0  0  0  0  0
    3.4244  -50.8846  -25.7191 C   0  0  0  0  0  0  0  0  0  0  0  0
    4.1396  -50.2540  -24.7259 C   0  0  0  0  0  0  0  0  0  0  0  0
    3.5144  -49.9877  -23.5120 C   0  0  0  0  0  0  0  0  0  0  0  0
    4.3740  -49.1816  -22.1941 Cl  0  0  0  0  0  0  0  0  0  0  0  0
    2.2008  -50.3768  -23.3781 C   0  0  0  0  0  0  0  0  0  0  0  0
    5.4465  -49.8846  -24.9021 O   0  0  0  0  0  0  0  0  0  0  0  0
    5.9588  -48.8012  -25.5955 C   0  0  0  0  0  0  0  0  0  0  0  0
    5.0538  -47.6417  -25.7274 C   0  0  0  0  0  0  0  0  0  0  0  0
    4.9635  -46.7202  -24.7060 C   0  0  0  0  0  0  0  0  0  0  0  0
    4.1121  -45.6142  -24.8120 C   0  0  0  0  0  0  0  0  0  0  0  0
    3.3517  -45.4317  -25.9408 C   0  0  0  0  0  0  0  0  0  0  0  0
    3.4483  -46.3621  -26.9628 C   0  0  0  0  0  0  0  0  0  0  0  0
    2.6954  -46.1892  -28.0894 F   0  0  0  0  0  0  0  0  0  0  0  0
    4.2852  -47.4431  -26.8505 C   0  0  0  0  0  0  0  0  0  0  0  0
   -0.3974  -53.0369  -18.0511 O   0  0  0  0  0  0  0  0  0  0  0  0
   -2.5578  -52.9029  -16.9509 C   0  0  0  0  0  0  0  0  0  0  0  0
   -1.1684  -52.3387  -17.1420 C   0  0  0  0  0  0  0  0  0  0  0  0
 42 43  1  0  0  0
 43 41  1  0  0  0
 41  1  1  0  0  0
  1  2  2  0  0  0
  2  3  1  0  0  0
  3  4  2  0  0  0
  4  5  1  0  0  0
  5  6  2  0  0  0
  6 21  1  0  0  0
 21 22  3  0  0  0
  6  7  1  0  0  0
  7 23  1  0  0  0
 23 25  1  0  0  0
 25 26  2  0  0  0
 26 27  1  0  0  0
 27 28  2  0  0  0
 28 32  1  0  0  0
 32 33  1  0  0  0
 33 34  1  0  0  0
 34 35  2  0  0  0
 35 36  1  0  0  0
 36 37  2  0  0  0
 37 38  1  0  0  0
 38 39  1  0  0  0
 38 40  2  0  0  0
 28 29  1  0  0  0
 29 30  1  0  0  0
 29 31  2  0  0  0
  7  8  2  0  0  0
  8  9  1  0  0  0
  9 10  2  0  0  0
 10 11  1  0  0  0
 11 12  1  0  0  0
 12 13  2  0  0  0
 12 15  1  0  0  0
 15 16  2  0  0  0
 16 17  1  0  0  0
 17 18  1  0  0  0
 18 19  1  0  0  0
 18 20  1  0  0  0
 10  1  1  0  0  0
  8  3  1  0  0  0
 31 25  1  0  0  0
 40 34  1  0  0  0
 23 24  1  0  0  0
 11 14  1  0  0  0
M  END
> <minimizedAffinity>
-6.83433

> <CNNscore>
0.3683082461

> <CNNaffinity>
7.5851669312

> <CNN_VS>
2.7936794758

> <CNNaffinity_variance>
0.0582624972

$$$$
[H]ON([H])C(=O)[C@]1([H])C([H])([H])C([H])([H])[C@@]([H])(N([H])C(=O)c2c(C(=O)c3c([H])c([H])c([H])n(C([H])([H])c4c([H])c([H])c([H])c([H])c4[H])c3=O)c3c(N([H])c4c([H])c([H])c(OC([H])([H])c5c([H])c([H])c([H])c(F)c5[H])c(Cl)c4[H])nc([H])nn3c2[H])C([H])([H])C1([H])[H]


 59 65  0  0  0  0  0  0  0  0999 V2000
    0.8017  -49.6373  -16.1849 C   0  0  0  0  0  0  0  0  0  0  0  0
   -0.5088  -49.9212  -15.7610 C   0  0  0  0  0  0  0  0  0  0  0  0
   -0.9538  -51.0054  -16.4542 N   0  0  0  0  0  0  0  0  0  0  0  0
   -2.1165  -51.6339  -16.3922 N   0  0  0  0  0  0  0  0  0  0  0  0
   -2.3806  -52.7004  -17.1612 C   0  0  0  0  0  0  0  0  0  0  0  0
   -1.4804  -53.1751  -18.0241 N   0  0  0  0  0  0  0  0  0  0  0  0
   -0.2699  -52.5391  -18.1040 C   0  0  0  0  0  0  0  0  0  0  0  0
   -0.0049  -51.4406  -17.3065 C   0  0  0  0  0  0  0  0  0  0  0  0
    1.0793  -50.5852  -17.1318 C   0  0  0  0  0  0  0  0  0  0  0  0
    1.7725  -47.3015  -16.1887 N   0  0  0  0  0  0  0  0  0  0  0  0
    1.6416  -48.5902  -15.6318 C   0  0  0  0  0  0  0  0  0  0  0  0
    2.3307  -48.7971  -14.5899 O   0  0  0  0  0  0  0  0  0  0  0  0
    1.2702  -47.0644  -17.0551 H   0  0  0  0  0  0  0  0  0  0  0  0
    4.2824  -43.8831  -15.5276 C   0  0  0  0  0  0  0  0  0  0  0  0
    4.8157  -45.2954  -15.4763 C   0  0  0  0  0  0  0  0  0  0  0  0
    3.9347  -46.1706  -16.3670 C   0  0  0  0  0  0  0  0  0  0  0  0
    2.6055  -46.2552  -15.6260 C   0  0  0  0  0  0  0  0  0  0  0  0
    1.9752  -44.8992  -15.7120 C   0  0  0  0  0  0  0  0  0  0  0  0
    2.8294  -43.7903  -15.2012 C   0  0  0  0  0  0  0  0  0  0  0  0
    7.2809  -42.2869  -13.9843 O   0  0  0  0  0  0  0  0  0  0  0  0
    6.5017  -43.0584  -14.7730 N   0  0  0  0  0  0  0  0  0  0  0  0
    5.1052  -43.0142  -14.6230 C   0  0  0  0  0  0  0  0  0  0  0  0
    4.5932  -42.2715  -13.7637 O   0  0  0  0  0  0  0  0  0  0  0  0
    6.7983  -41.4384  -13.7738 H   0  0  0  0  0  0  0  0  0  0  0  0
    6.9429  -43.6615  -15.4759 H   0  0  0  0  0  0  0  0  0  0  0  0
    0.6355  -53.0352  -19.0520 N   0  0  0  0  0  0  0  0  0  0  0  0
    1.5575  -53.3809  -18.8649 H   0  0  0  0  0  0  0  0  0  0  0  0
    0.2053  -53.0387  -20.4085 C   0  0  0  0  0  0  0  0  0  0  0  0
    0.2915  -51.8575  -21.1354 C   0  0  0  0  0  0  0  0  0  0  0  0
   -0.0506  -51.7718  -22.4634 C   0  0  0  0  0  0  0  0  0  0  0  0
   -0.4994  -52.8672  -23.1385 C   0  0  0  0  0  0  0  0  0  0  0  0
   -0.5996  -54.0652  -22.4369 C   0  0  0  0  0  0  0  0  0  0  0  0
   -1.1786  -55.5053  -23.2862 Cl  0  0  0  0  0  0  0  0  0  0  0  0
   -0.2506  -54.1312  -21.1001 C   0  0  0  0  0  0  0  0  0  0  0  0
   -0.8637  -52.8809  -24.4528 O   0  0  0  0  0  0  0  0  0  0  0  0
   -0.5116  -51.8666  -25.3359 C   0  0  0  0  0  0  0  0  0  0  0  0
   -1.1029  -52.1570  -26.6768 C   0  0  0  0  0  0  0  0  0  0  0  0
   -2.4536  -52.2072  -26.9270 C   0  0  0  0  0  0  0  0  0  0  0  0
   -2.9239  -52.4942  -28.1654 C   0  0  0  0  0  0  0  0  0  0  0  0
   -2.0173  -52.7397  -29.1945 C   0  0  0  0  0  0  0  0  0  0  0  0
   -0.6617  -52.6905  -28.9535 C   0  0  0  0  0  0  0  0  0  0  0  0
    0.2241  -52.9369  -29.9806 F   0  0  0  0  0  0  0  0  0  0  0  0
   -0.1910  -52.4029  -27.7092 C   0  0  0  0  0  0  0  0  0  0  0  0
    2.3241  -50.6359  -17.8933 C   0  0  0  0  0  0  0  0  0  0  0  0
    3.3665  -51.1982  -17.5069 O   0  0  0  0  0  0  0  0  0  0  0  0
    2.3667  -49.9718  -19.2178 C   0  0  0  0  0  0  0  0  0  0  0  0
    1.4079  -49.0258  -19.5368 C   0  0  0  0  0  0  0  0  0  0  0  0
    1.4012  -48.3770  -20.7530 C   0  0  0  0  0  0  0  0  0  0  0  0
    2.3539  -48.6634  -21.6693 C   0  0  0  0  0  0  0  0  0  0  0  0
    3.3056  -49.5928  -21.3708 N   0  0  0  0  0  0  0  0  0  0  0  0
    3.3146  -50.2357  -20.1712 C   0  0  0  0  0  0  0  0  0  0  0  0
    4.2008  -51.0730  -19.9470 O   0  0  0  0  0  0  0  0  0  0  0  0
    4.3066  -49.8650  -22.3588 C   0  0  0  0  0  0  0  0  0  0  0  0
    3.8026  -50.6690  -23.4720 C   0  0  0  0  0  0  0  0  0  0  0  0
    3.5635  -50.1154  -24.7024 C   0  0  0  0  0  0  0  0  0  0  0  0
    3.0952  -50.8728  -25.7506 C   0  0  0  0  0  0  0  0  0  0  0  0
    2.8614  -52.2357  -25.5443 C   0  0  0  0  0  0  0  0  0  0  0  0
    3.0945  -52.8120  -24.3171 C   0  0  0  0  0  0  0  0  0  0  0  0
    3.5637  -52.0246  -23.2907 C   0  0  0  0  0  0  0  0  0  0  0  0
 20 21  1  0  0  0
 21 22  1  0  0  0
 22 23  2  0  0  0
 22 14  1  0  0  0
 14 15  1  0  0  0
 15 16  1  0  0  0
 16 17  1  0  0  0
 17 18  1  0  0  0
 18 19  1  0  0  0
 17 10  1  0  0  0
 10 11  1  0  0  0
 11 12  2  0  0  0
 11  1  1  0  0  0
  1  2  2  0  0  0
  2  3  1  0  0  0
  3  4  1  0  0  0
  4  5  2  0  0  0
  5  6  1  0  0  0
  6  7  2  0  0  0
  7 26  1  0  0  0
 26 28  1  0  0  0
 28 29  2  0  0  0
 29 30  1  0  0  0
 30 31  2  0  0  0
 31 35  1  0  0  0
 35 36  1  0  0  0
 36 37  1  0  0  0
 37 38  2  0  0  0
 38 39  1  0  0  0
 39 40  2  0  0  0
 40 41  1  0  0  0
 41 42  1  0  0  0
 41 43  2  0  0  0
 31 32  1  0  0  0
 32 33  1  0  0  0
 32 34  2  0  0  0
  7  8  1  0  0  0
  8  9  2  0  0  0
  9 44  1  0  0  0
 44 45  2  0  0  0
 44 46  1  0  0  0
 46 47  2  0  0  0
 47 48  1  0  0  0
 48 49  2  0  0  0
 49 50  1  0  0  0
 50 53  1  0  0  0
 53 54  1  0  0  0
 54 55  2  0  0  0
 55 56  1  0  0  0
 56 57  2  0  0  0
 57 58  1  0  0  0
 58 59  2  0  0  0
 50 51  1  0  0  0
 51 52  2  0  0  0
 19 14  1  0  0  0
  9  1  1  0  0  0
 51 46  1  0  0  0
  8  3  1  0  0  0
 59 54  1  0  0  0
 34 28  1  0  0  0
 43 37  1  0  0  0
 20 24  1  0  0  0
 21 25  1  0  0  0
 10 13  1  0  0  0
 26 27  1  0  0  0
M  END
> <minimizedAffinity>
-9.30309

> <CNNscore>
0.3214787543

> <CNNaffinity>
7.7677545547

> <CNN_VS>
2.4971680641

> <CNNaffinity_variance>
0.4756916463

$$$$
[H]ON([H])C(=O)[C@]1([H])C([H])([H])C([H])([H])[C@@]([H])(N([H])C(=O)c2c(C(=O)c3c([H])c([H])c([H])n(C([H])([H])c4c([H])c([H])c([H])c([H])c4[H])c3=O)c3c(N([H])c4c([H])c([H])c(OC([H])([H])c5c([H])c([H])c([H])c(F)c5[H])c(Cl)c4[H])nc([H])nn3c2[H])C([H])([H])C1([H])[H]


 59 65  0  0  0  0  0  0  0  0999 V2000
    1.7317  -51.7221  -25.1396 C   0  0  0  0  0  0  0  0  0  0  0  0
    0.5893  -52.4803  -25.4523 C   0  0  0  0  0  0  0  0  0  0  0  0
    0.1642  -53.0965  -24.3149 N   0  0  0  0  0  0  0  0  0  0  0  0
   -0.8666  -53.9030  -24.1208 N   0  0  0  0  0  0  0  0  0  0  0  0
   -1.1354  -54.4217  -22.9137 C   0  0  0  0  0  0  0  0  0  0  0  0
   -0.3733  -54.1466  -21.8537 N   0  0  0  0  0  0  0  0  0  0  0  0
    0.6991  -53.3135  -22.0327 C   0  0  0  0  0  0  0  0  0  0  0  0
    0.9687  -52.7816  -23.2806 C   0  0  0  0  0  0  0  0  0  0  0  0
    1.9375  -51.9292  -23.8028 C   0  0  0  0  0  0  0  0  0  0  0  0
    2.8038  -49.5319  -25.8123 N   0  0  0  0  0  0  0  0  0  0  0  0
    2.4398  -50.8683  -26.0763 C   0  0  0  0  0  0  0  0  0  0  0  0
    2.7660  -51.2970  -27.2222 O   0  0  0  0  0  0  0  0  0  0  0  0
    2.5458  -49.0984  -24.9153 H   0  0  0  0  0  0  0  0  0  0  0  0
    4.9408  -46.3624  -27.7641 C   0  0  0  0  0  0  0  0  0  0  0  0
    3.4950  -46.6697  -28.0755 C   0  0  0  0  0  0  0  0  0  0  0  0
    2.8669  -47.3123  -26.8395 C   0  0  0  0  0  0  0  0  0  0  0  0
    3.5206  -48.6861  -26.7483 C   0  0  0  0  0  0  0  0  0  0  0  0
    4.9480  -48.4607  -26.3546 C   0  0  0  0  0  0  0  0  0  0  0  0
    5.6982  -47.5447  -27.2591 C   0  0  0  0  0  0  0  0  0  0  0  0
    5.2931  -44.6868  -31.0790 O   0  0  0  0  0  0  0  0  0  0  0  0
    4.7502  -45.2349  -29.9702 N   0  0  0  0  0  0  0  0  0  0  0  0
    5.5907  -45.7723  -28.9805 C   0  0  0  0  0  0  0  0  0  0  0  0
    6.8272  -45.7464  -29.1306 O   0  0  0  0  0  0  0  0  0  0  0  0
    6.1686  -44.2679  -30.8442 H   0  0  0  0  0  0  0  0  0  0  0  0
    3.7299  -45.2445  -29.8649 H   0  0  0  0  0  0  0  0  0  0  0  0
    1.5046  -53.0812  -20.9094 N   0  0  0  0  0  0  0  0  0  0  0  0
    2.4888  -53.2584  -20.8405 H   0  0  0  0  0  0  0  0  0  0  0  0
    0.8593  -52.5524  -19.7564 C   0  0  0  0  0  0  0  0  0  0  0  0
    1.3972  -51.4213  -19.1547 C   0  0  0  0  0  0  0  0  0  0  0  0
    0.8195  -50.8069  -18.0699 C   0  0  0  0  0  0  0  0  0  0  0  0
   -0.3316  -51.2929  -17.5262 C   0  0  0  0  0  0  0  0  0  0  0  0
   -0.8938  -52.4271  -18.1052 C   0  0  0  0  0  0  0  0  0  0  0  0
   -2.3889  -53.0818  -17.4220 Cl  0  0  0  0  0  0  0  0  0  0  0  0
   -0.2969  -53.0315  -19.1969 C   0  0  0  0  0  0  0  0  0  0  0  0
   -0.9772  -50.7551  -16.4519 O   0  0  0  0  0  0  0  0  0  0  0  0
   -0.8884  -51.3021  -15.1768 C   0  0  0  0  0  0  0  0  0  0  0  0
   -2.2092  -51.1657  -14.4920 C   0  0  0  0  0  0  0  0  0  0  0  0
   -2.5463  -51.8244  -13.3336 C   0  0  0  0  0  0  0  0  0  0  0  0
   -3.7707  -51.6690  -12.7732 C   0  0  0  0  0  0  0  0  0  0  0  0
   -4.6949  -50.8262  -13.3872 C   0  0  0  0  0  0  0  0  0  0  0  0
   -4.3655  -50.1610  -14.5478 C   0  0  0  0  0  0  0  0  0  0  0  0
   -5.2901  -49.3312  -15.1454 F   0  0  0  0  0  0  0  0  0  0  0  0
   -3.1359  -50.3186  -15.1096 C   0  0  0  0  0  0  0  0  0  0  0  0
    3.0646  -51.3767  -23.0569 C   0  0  0  0  0  0  0  0  0  0  0  0
    4.1388  -51.9741  -22.8541 O   0  0  0  0  0  0  0  0  0  0  0  0
    2.9336  -50.0127  -22.4914 C   0  0  0  0  0  0  0  0  0  0  0  0
    1.7022  -49.5827  -22.0279 C   0  0  0  0  0  0  0  0  0  0  0  0
    1.5245  -48.3254  -21.4914 C   0  0  0  0  0  0  0  0  0  0  0  0
    2.5758  -47.4784  -21.4091 C   0  0  0  0  0  0  0  0  0  0  0  0
    3.7956  -47.8867  -21.8610 N   0  0  0  0  0  0  0  0  0  0  0  0
    3.9742  -49.1271  -22.3919 C   0  0  0  0  0  0  0  0  0  0  0  0
    5.1026  -49.4517  -22.7894 O   0  0  0  0  0  0  0  0  0  0  0  0
    4.8905  -46.9697  -21.7494 C   0  0  0  0  0  0  0  0  0  0  0  0
    5.0142  -46.0882  -22.9101 C   0  0  0  0  0  0  0  0  0  0  0  0
    3.9243  -45.4519  -23.4435 C   0  0  0  0  0  0  0  0  0  0  0  0
    4.0418  -44.6184  -24.5312 C   0  0  0  0  0  0  0  0  0  0  0  0
    5.3057  -44.4241  -25.0966 C   0  0  0  0  0  0  0  0  0  0  0  0
    6.4134  -45.0531  -24.5771 C   0  0  0  0  0  0  0  0  0  0  0  0
    6.2594  -45.8797  -23.4878 C   0  0  0  0  0  0  0  0  0  0  0  0
 20 21  1  0  0  0
 21 22  1  0  0  0
 22 23  2  0  0  0
 22 14  1  0  0  0
 14 15  1  0  0  0
 15 16  1  0  0  0
 16 17  1  0  0  0
 17 18  1  0  0  0
 18 19  1  0  0  0
 17 10  1  0  0  0
 10 11  1  0  0  0
 11 12  2  0  0  0
 11  1  1  0  0  0
  1  2  2  0  0  0
  2  3  1  0  0  0
  3  4  1  0  0  0
  4  5  2  0  0  0
  5  6  1  0  0  0
  6  7  2  0  0  0
  7 26  1  0  0  0
 26 28  1  0  0  0
 28 29  2  0  0  0
 29 30  1  0  0  0
 30 31  2  0  0  0
 31 35  1  0  0  0
 35 36  1  0  0  0
 36 37  1  0  0  0
 37 38  2  0  0  0
 38 39  1  0  0  0
 39 40  2  0  0  0
 40 41  1  0  0  0
 41 42  1  0  0  0
 41 43  2  0  0  0
 31 32  1  0  0  0
 32 33  1  0  0  0
 32 34  2  0  0  0
  7  8  1  0  0  0
  8  9  2  0  0  0
  9 44  1  0  0  0
 44 45  2  0  0  0
 44 46  1  0  0  0
 46 47  2  0  0  0
 47 48  1  0  0  0
 48 49  2  0  0  0
 49 50  1  0  0  0
 50 53  1  0  0  0
 53 54  1  0  0  0
 54 55  2  0  0  0
 55 56  1  0  0  0
 56 57  2  0  0  0
 57 58  1  0  0  0
 58 59  2  0  0  0
 50 51  1  0  0  0
 51 52  2  0  0  0
 19 14  1  0  0  0
  9  1  1  0  0  0
 51 46  1  0  0  0
  8  3  1  0  0  0
 59 54  1  0  0  0
 34 28  1  0  0  0
 43 37  1  0  0  0
 20 24  1  0  0  0
 21 25  1  0  0  0
 10 13  1  0  0  0
 26 27  1  0  0  0
M  END
> <minimizedAffinity>
-7.99561

> <CNNscore>
0.1457198709

> <CNNaffinity>
7.5671453476

> <CNN_VS>
1.1026834249

> <CNNaffinity_variance>
0.2932088971

$$$$
[H]ON([H])C(=O)[C@]1([H])C([H])([H])C([H])([H])[C@@]([H])(N([H])C(=O)c2c(C(=O)c3c([H])c([H])c([H])n(C([H])([H])c4c([H])c([H])c([H])c([H])c4[H])c3=O)c3c(N([H])c4c([H])c([H])c(OC([H])([H])c5c([H])c([H])c([H])c(F)c5[H])c(Cl)c4[H])nc([H])nn3c2[H])C([H])([H])C1([H])[H]


 59 65  0  0  0  0  0  0  0  0999 V2000
    1.6692  -51.7495  -25.2544 C   0  0  0  0  0  0  0  0  0  0  0  0
    0.5128  -52.4942  -25.5474 C   0  0  0  0  0  0  0  0  0  0  0  0
    0.0854  -53.0849  -24.3975 N   0  0  0  0  0  0  0  0  0  0  0  0
   -0.9570  -53.8714  -24.1837 N   0  0  0  0  0  0  0  0  0  0  0  0
   -1.2261  -54.3661  -22.9667 C   0  0  0  0  0  0  0  0  0  0  0  0
   -0.4528  -54.0862  -21.9161 N   0  0  0  0  0  0  0  0  0  0  0  0
    0.6317  -53.2735  -22.1155 C   0  0  0  0  0  0  0  0  0  0  0  0
    0.9016  -52.7663  -23.3735 C   0  0  0  0  0  0  0  0  0  0  0  0
    1.8804  -51.9383  -23.9157 C   0  0  0  0  0  0  0  0  0  0  0  0
    2.7402  -49.5769  -25.9834 N   0  0  0  0  0  0  0  0  0  0  0  0
    2.3847  -50.9225  -26.2092 C   0  0  0  0  0  0  0  0  0  0  0  0
    2.7260  -51.3856  -27.3372 O   0  0  0  0  0  0  0  0  0  0  0  0
    2.4700  -49.1164  -25.1035 H   0  0  0  0  0  0  0  0  0  0  0  0
    4.9019  -46.4677  -28.0039 C   0  0  0  0  0  0  0  0  0  0  0  0
    3.4547  -46.7728  -28.3113 C   0  0  0  0  0  0  0  0  0  0  0  0
    2.8199  -47.3824  -27.0620 C   0  0  0  0  0  0  0  0  0  0  0  0
    3.4644  -48.7578  -26.9372 C   0  0  0  0  0  0  0  0  0  0  0  0
    4.8925  -48.5325  -26.5458 C   0  0  0  0  0  0  0  0  0  0  0  0
    5.6505  -47.6428  -27.4698 C   0  0  0  0  0  0  0  0  0  0  0  0
    5.7975  -46.0258  -31.5987 O   0  0  0  0  0  0  0  0  0  0  0  0
    5.2354  -46.5007  -30.4661 N   0  0  0  0  0  0  0  0  0  0  0  0
    5.5581  -45.9104  -29.2323 C   0  0  0  0  0  0  0  0  0  0  0  0
    6.3617  -44.9595  -29.1868 O   0  0  0  0  0  0  0  0  0  0  0  0
    5.9456  -45.0427  -31.5055 H   0  0  0  0  0  0  0  0  0  0  0  0
    4.5746  -47.2831  -30.5253 H   0  0  0  0  0  0  0  0  0  0  0  0
    1.4482  -53.0361  -21.0011 N   0  0  0  0  0  0  0  0  0  0  0  0
    2.4411  -53.1659  -20.9571 H   0  0  0  0  0  0  0  0  0  0  0  0
    0.8020  -52.5761  -19.8196 C   0  0  0  0  0  0  0  0  0  0  0  0
    1.3285  -51.4708  -19.1623 C   0  0  0  0  0  0  0  0  0  0  0  0
    0.7485  -50.9209  -18.0447 C   0  0  0  0  0  0  0  0  0  0  0  0
   -0.3937  -51.4492  -17.5220 C   0  0  0  0  0  0  0  0  0  0  0  0
   -0.9444  -52.5591  -18.1566 C   0  0  0  0  0  0  0  0  0  0  0  0
   -2.4277  -53.2674  -17.5019 Cl  0  0  0  0  0  0  0  0  0  0  0  0
   -0.3453  -53.0984  -19.2807 C   0  0  0  0  0  0  0  0  0  0  0  0
   -1.0407  -50.9761  -16.4184 O   0  0  0  0  0  0  0  0  0  0  0  0
   -0.8365  -51.5050  -15.1491 C   0  0  0  0  0  0  0  0  0  0  0  0
    0.4660  -51.0059  -14.6139 C   0  0  0  0  0  0  0  0  0  0  0  0
    0.7691  -49.6758  -14.4456 C   0  0  0  0  0  0  0  0  0  0  0  0
    1.9787  -49.2901  -13.9708 C   0  0  0  0  0  0  0  0  0  0  0  0
    2.9226  -50.2635  -13.6503 C   0  0  0  0  0  0  0  0  0  0  0  0
    2.6274  -51.5992  -13.8146 C   0  0  0  0  0  0  0  0  0  0  0  0
    3.5712  -52.5518  -13.4948 F   0  0  0  0  0  0  0  0  0  0  0  0
    1.4126  -51.9848  -14.2921 C   0  0  0  0  0  0  0  0  0  0  0  0
    3.0211  -51.3919  -23.1860 C   0  0  0  0  0  0  0  0  0  0  0  0
    4.0823  -52.0076  -22.9699 O   0  0  0  0  0  0  0  0  0  0  0  0
    2.9215  -50.0115  -22.6551 C   0  0  0  0  0  0  0  0  0  0  0  0
    1.7784  -49.6226  -21.9783 C   0  0  0  0  0  0  0  0  0  0  0  0
    1.6337  -48.3523  -21.4631 C   0  0  0  0  0  0  0  0  0  0  0  0
    2.6303  -47.4508  -21.6158 C   0  0  0  0  0  0  0  0  0  0  0  0
    3.7630  -47.8180  -22.2799 N   0  0  0  0  0  0  0  0  0  0  0  0
    3.9087  -49.0712  -22.7905 C   0  0  0  0  0  0  0  0  0  0  0  0
    4.9574  -49.3569  -23.3866 O   0  0  0  0  0  0  0  0  0  0  0  0
    4.8039  -46.8431  -22.4149 C   0  0  0  0  0  0  0  0  0  0  0  0
    4.5559  -45.8932  -23.4993 C   0  0  0  0  0  0  0  0  0  0  0  0
    5.5859  -45.3369  -24.2114 C   0  0  0  0  0  0  0  0  0  0  0  0
    5.3522  -44.4483  -25.2348 C   0  0  0  0  0  0  0  0  0  0  0  0
    4.0311  -44.1127  -25.5461 C   0  0  0  0  0  0  0  0  0  0  0  0
    2.9820  -44.6594  -24.8440 C   0  0  0  0  0  0  0  0  0  0  0  0
    3.2522  -45.5457  -23.8266 C   0  0  0  0  0  0  0  0  0  0  0  0
 20 21  1  0  0  0
 21 22  1  0  0  0
 22 23  2  0  0  0
 22 14  1  0  0  0
 14 15  1  0  0  0
 15 16  1  0  0  0
 16 17  1  0  0  0
 17 18  1  0  0  0
 18 19  1  0  0  0
 17 10  1  0  0  0
 10 11  1  0  0  0
 11 12  2  0  0  0
 11  1  1  0  0  0
  1  2  2  0  0  0
  2  3  1  0  0  0
  3  4  1  0  0  0
  4  5  2  0  0  0
  5  6  1  0  0  0
  6  7  2  0  0  0
  7 26  1  0  0  0
 26 28  1  0  0  0
 28 29  2  0  0  0
 29 30  1  0  0  0
 30 31  2  0  0  0
 31 35  1  0  0  0
 35 36  1  0  0  0
 36 37  1  0  0  0
 37 38  2  0  0  0
 38 39  1  0  0  0
 39 40  2  0  0  0
 40 41  1  0  0  0
 41 42  1  0  0  0
 41 43  2  0  0  0
 31 32  1  0  0  0
 32 33  1  0  0  0
 32 34  2  0  0  0
  7  8  1  0  0  0
  8  9  2  0  0  0
  9 44  1  0  0  0
 44 45  2  0  0  0
 44 46  1  0  0  0
 46 47  2  0  0  0
 47 48  1  0  0  0
 48 49  2  0  0  0
 49 50  1  0  0  0
 50 53  1  0  0  0
 53 54  1  0  0  0
 54 55  2  0  0  0
 55 56  1  0  0  0
 56 57  2  0  0  0
 57 58  1  0  0  0
 58 59  2  0  0  0
 50 51  1  0  0  0
 51 52  2  0  0  0
 19 14  1  0  0  0
  9  1  1  0  0  0
 51 46  1  0  0  0
  8  3  1  0  0  0
 59 54  1  0  0  0
 34 28  1  0  0  0
 43 37  1  0  0  0
 20 24  1  0  0  0
 21 25  1  0  0  0
 10 13  1  0  0  0
 26 27  1  0  0  0
M  END
> <minimizedAffinity>
-8.01548

> <CNNscore>
0.1289681941

> <CNNaffinity>
7.5984182358

> <CNN_VS>
0.9799543023

> <CNNaffinity_variance>
0.3051693738

$$$$
[H]ON([H])C(=O)[C@]1([H])C([H])([H])C([H])([H])[C@@]([H])(N([H])C(=O)c2c(C(=O)c3c([H])c([H])c([H])n(C([H])([H])c4c([H])c([H])c([H])c([H])c4[H])c3=O)c3c(N([H])c4c([H])c([H])c(OC([H])([H])c5c([H])c([H])c([H])c(F)c5[H])c(Cl)c4[H])nc([H])nn3c2[H])C([H])([H])C1([H])[H]


 59 65  0  0  0  0  0  0  0  0999 V2000
   -0.2590  -52.9564  -20.4187 C   0  0  0  0  0  0  0  0  0  0  0  0
   -1.4409  -53.3491  -19.7655 C   0  0  0  0  0  0  0  0  0  0  0  0
   -1.4137  -52.8468  -18.5003 N   0  0  0  0  0  0  0  0  0  0  0  0
   -2.3028  -52.9518  -17.5260 N   0  0  0  0  0  0  0  0  0  0  0  0
   -2.1040  -52.3813  -16.3287 C   0  0  0  0  0  0  0  0  0  0  0  0
   -0.9985  -51.6815  -16.0674 N   0  0  0  0  0  0  0  0  0  0  0  0
   -0.0649  -51.5604  -17.0624 C   0  0  0  0  0  0  0  0  0  0  0  0
   -0.2782  -52.1507  -18.2948 C   0  0  0  0  0  0  0  0  0  0  0  0
    0.4308  -52.2252  -19.4904 C   0  0  0  0  0  0  0  0  0  0  0  0
    0.0907  -52.2716  -22.8286 N   0  0  0  0  0  0  0  0  0  0  0  0
    0.0532  -53.2429  -21.8073 C   0  0  0  0  0  0  0  0  0  0  0  0
    0.3051  -54.4259  -22.1823 O   0  0  0  0  0  0  0  0  0  0  0  0
   -0.1346  -51.2911  -22.6115 H   0  0  0  0  0  0  0  0  0  0  0  0
    0.2513  -52.4614  -27.1135 C   0  0  0  0  0  0  0  0  0  0  0  0
   -0.2939  -53.5951  -26.2772 C   0  0  0  0  0  0  0  0  0  0  0  0
   -0.8305  -53.0095  -24.9716 C   0  0  0  0  0  0  0  0  0  0  0  0
    0.4133  -52.5618  -24.2131 C   0  0  0  0  0  0  0  0  0  0  0  0
    0.9625  -51.3757  -24.9444 C   0  0  0  0  0  0  0  0  0  0  0  0
    1.2460  -51.6194  -26.3867 C   0  0  0  0  0  0  0  0  0  0  0  0
    2.5279  -54.3420  -29.3941 O   0  0  0  0  0  0  0  0  0  0  0  0
    1.9807  -53.8135  -28.2780 N   0  0  0  0  0  0  0  0  0  0  0  0
    0.8261  -53.0190  -28.3819 C   0  0  0  0  0  0  0  0  0  0  0  0
    0.3169  -52.8014  -29.4978 O   0  0  0  0  0  0  0  0  0  0  0  0
    1.8039  -54.5446  -30.0514 H   0  0  0  0  0  0  0  0  0  0  0  0
    2.4142  -54.0063  -27.3685 H   0  0  0  0  0  0  0  0  0  0  0  0
    1.1043  -50.8575  -16.7404 N   0  0  0  0  0  0  0  0  0  0  0  0
    2.0333  -51.0869  -17.0386 H   0  0  0  0  0  0  0  0  0  0  0  0
    0.9558  -49.7161  -15.9034 C   0  0  0  0  0  0  0  0  0  0  0  0
   -0.1438  -48.8890  -16.0975 C   0  0  0  0  0  0  0  0  0  0  0  0
   -0.4021  -47.7936  -15.3093 C   0  0  0  0  0  0  0  0  0  0  0  0
    0.4290  -47.4650  -14.2806 C   0  0  0  0  0  0  0  0  0  0  0  0
    1.5413  -48.2729  -14.0622 C   0  0  0  0  0  0  0  0  0  0  0  0
    2.6390  -47.8723  -12.7336 Cl  0  0  0  0  0  0  0  0  0  0  0  0
    1.7843  -49.3714  -14.8669 C   0  0  0  0  0  0  0  0  0  0  0  0
    0.2580  -46.3993  -13.4467 O   0  0  0  0  0  0  0  0  0  0  0  0
   -0.9023  -45.6336  -13.4419 C   0  0  0  0  0  0  0  0  0  0  0  0
   -0.6965  -44.4265  -14.2977 C   0  0  0  0  0  0  0  0  0  0  0  0
    0.4815  -43.7211  -14.3617 C   0  0  0  0  0  0  0  0  0  0  0  0
    0.5954  -42.6222  -15.1471 C   0  0  0  0  0  0  0  0  0  0  0  0
   -0.5032  -42.2092  -15.8979 C   0  0  0  0  0  0  0  0  0  0  0  0
   -1.6877  -42.9105  -15.8410 C   0  0  0  0  0  0  0  0  0  0  0  0
   -2.7672  -42.4899  -16.5882 F   0  0  0  0  0  0  0  0  0  0  0  0
   -1.8006  -44.0134  -15.0515 C   0  0  0  0  0  0  0  0  0  0  0  0
    1.7592  -51.6638  -19.7189 C   0  0  0  0  0  0  0  0  0  0  0  0
    2.8136  -52.1278  -19.2448 O   0  0  0  0  0  0  0  0  0  0  0  0
    1.8758  -50.4544  -20.5681 C   0  0  0  0  0  0  0  0  0  0  0  0
    1.2406  -49.2868  -20.1819 C   0  0  0  0  0  0  0  0  0  0  0  0
    1.3169  -48.1334  -20.9329 C   0  0  0  0  0  0  0  0  0  0  0  0
    2.0306  -48.1292  -22.0818 C   0  0  0  0  0  0  0  0  0  0  0  0
    2.6626  -49.2710  -22.4763 N   0  0  0  0  0  0  0  0  0  0  0  0
    2.5885  -50.4117  -21.7375 C   0  0  0  0  0  0  0  0  0  0  0  0
    3.1803  -51.4244  -22.1384 O   0  0  0  0  0  0  0  0  0  0  0  0
    3.4190  -49.2299  -23.6921 C   0  0  0  0  0  0  0  0  0  0  0  0
    4.6529  -48.4542  -23.5680 C   0  0  0  0  0  0  0  0  0  0  0  0
    5.5323  -48.6702  -22.5397 C   0  0  0  0  0  0  0  0  0  0  0  0
    6.6952  -47.9447  -22.4265 C   0  0  0  0  0  0  0  0  0  0  0  0
    6.9754  -46.9682  -23.3871 C   0  0  0  0  0  0  0  0  0  0  0  0
    6.1064  -46.7348  -24.4276 C   0  0  0  0  0  0  0  0  0  0  0  0
    4.9523  -47.4797  -24.5105 C   0  0  0  0  0  0  0  0  0  0  0  0
 20 21  1  0  0  0
 21 22  1  0  0  0
 22 23  2  0  0  0
 22 14  1  0  0  0
 14 15  1  0  0  0
 15 16  1  0  0  0
 16 17  1  0  0  0
 17 18  1  0  0  0
 18 19  1  0  0  0
 17 10  1  0  0  0
 10 11  1  0  0  0
 11 12  2  0  0  0
 11  1  1  0  0  0
  1  2  2  0  0  0
  2  3  1  0  0  0
  3  4  1  0  0  0
  4  5  2  0  0  0
  5  6  1  0  0  0
  6  7  2  0  0  0
  7 26  1  0  0  0
 26 28  1  0  0  0
 28 29  2  0  0  0
 29 30  1  0  0  0
 30 31  2  0  0  0
 31 35  1  0  0  0
 35 36  1  0  0  0
 36 37  1  0  0  0
 37 38  2  0  0  0
 38 39  1  0  0  0
 39 40  2  0  0  0
 40 41  1  0  0  0
 41 42  1  0  0  0
 41 43  2  0  0  0
 31 32  1  0  0  0
 32 33  1  0  0  0
 32 34  2  0  0  0
  7  8  1  0  0  0
  8  9  2  0  0  0
  9 44  1  0  0  0
 44 45  2  0  0  0
 44 46  1  0  0  0
 46 47  2  0  0  0
 47 48  1  0  0  0
 48 49  2  0  0  0
 49 50  1  0  0  0
 50 53  1  0  0  0
 53 54  1  0  0  0
 54 55  2  0  0  0
 55 56  1  0  0  0
 56 57  2  0  0  0
 57 58  1  0  0  0
 58 59  2  0  0  0
 50 51  1  0  0  0
 51 52  2  0  0  0
 19 14  1  0  0  0
  9  1  1  0  0  0
 51 46  1  0  0  0
  8  3  1  0  0  0
 59 54  1  0  0  0
 34 28  1  0  0  0
 43 37  1  0  0  0
 20 24  1  0  0  0
 21 25  1  0  0  0
 10 13  1  0  0  0
 26 27  1  0  0  0
M  END
> <minimizedAffinity>
-8.84755

> <CNNscore>
0.1251129657

> <CNNaffinity>
7.6645750999

> <CNN_VS>
0.9589377046

> <CNNaffinity_variance>
0.2666644156

$$$$
[H]ON([H])C(=O)[C@]1([H])C([H])([H])C([H])([H])[C@@]([H])(N([H])C(=O)c2c(C(=O)c3c([H])c([H])c([H])n(C([H])([H])c4c([H])c([H])c([H])c([H])c4[H])c3=O)c3c(N([H])c4c([H])c([H])c(OC([H])([H])c5c([H])c([H])c([H])c(F)c5[H])c(Cl)c4[H])nc([H])nn3c2[H])C([H])([H])C1([H])[H]


 59 65  0  0  0  0  0  0  0  0999 V2000
   -0.3625  -53.0817  -20.3782 C   0  0  0  0  0  0  0  0  0  0  0  0
   -1.5405  -53.3999  -19.6789 C   0  0  0  0  0  0  0  0  0  0  0  0
   -1.4550  -52.8561  -18.4335 N   0  0  0  0  0  0  0  0  0  0  0  0
   -2.3188  -52.8888  -17.4318 N   0  0  0  0  0  0  0  0  0  0  0  0
   -2.0609  -52.2868  -16.2615 C   0  0  0  0  0  0  0  0  0  0  0  0
   -0.9194  -51.6274  -16.0559 N   0  0  0  0  0  0  0  0  0  0  0  0
   -0.0111  -51.5812  -17.0802 C   0  0  0  0  0  0  0  0  0  0  0  0
   -0.2853  -52.2036  -18.2845 C   0  0  0  0  0  0  0  0  0  0  0  0
    0.3846  -52.3499  -19.4959 C   0  0  0  0  0  0  0  0  0  0  0  0
    0.1064  -52.4871  -22.7916 N   0  0  0  0  0  0  0  0  0  0  0  0
   -0.1036  -53.4291  -21.7638 C   0  0  0  0  0  0  0  0  0  0  0  0
   -0.0640  -54.6406  -22.1298 O   0  0  0  0  0  0  0  0  0  0  0  0
    0.0575  -51.4807  -22.5820 H   0  0  0  0  0  0  0  0  0  0  0  0
    0.9486  -52.4837  -27.0004 C   0  0  0  0  0  0  0  0  0  0  0  0
   -0.4186  -52.8198  -26.4531 C   0  0  0  0  0  0  0  0  0  0  0  0
   -0.5819  -52.1111  -25.1091 C   0  0  0  0  0  0  0  0  0  0  0  0
    0.3750  -52.8399  -24.1732 C   0  0  0  0  0  0  0  0  0  0  0  0
    1.7626  -52.4799  -24.6073 C   0  0  0  0  0  0  0  0  0  0  0  0
    2.0538  -52.7698  -26.0395 C   0  0  0  0  0  0  0  0  0  0  0  0
    2.5293  -54.6578  -29.5879 O   0  0  0  0  0  0  0  0  0  0  0  0
    2.3119  -53.9839  -28.4377 N   0  0  0  0  0  0  0  0  0  0  0  0
    1.1492  -53.2068  -28.2993 C   0  0  0  0  0  0  0  0  0  0  0  0
    0.3297  -53.1380  -29.2351 O   0  0  0  0  0  0  0  0  0  0  0  0
    1.6532  -54.9438  -29.9724 H   0  0  0  0  0  0  0  0  0  0  0  0
    2.9980  -54.0554  -27.6784 H   0  0  0  0  0  0  0  0  0  0  0  0
    1.1959  -50.9193  -16.8159 N   0  0  0  0  0  0  0  0  0  0  0  0
    2.0974  -51.1666  -17.1775 H   0  0  0  0  0  0  0  0  0  0  0  0
    1.1333  -49.7961  -15.9443 C   0  0  0  0  0  0  0  0  0  0  0  0
    0.0942  -48.8877  -16.1056 C   0  0  0  0  0  0  0  0  0  0  0  0
   -0.0815  -47.8011  -15.2832 C   0  0  0  0  0  0  0  0  0  0  0  0
    0.7762  -47.5634  -14.2514 C   0  0  0  0  0  0  0  0  0  0  0  0
    1.8295  -48.4543  -14.0653 C   0  0  0  0  0  0  0  0  0  0  0  0
    2.9598  -48.1727  -12.7336 Cl  0  0  0  0  0  0  0  0  0  0  0  0
    1.9896  -49.5424  -14.9042 C   0  0  0  0  0  0  0  0  0  0  0  0
    0.6857  -46.5139  -13.3849 O   0  0  0  0  0  0  0  0  0  0  0  0
   -0.4074  -45.6552  -13.3638 C   0  0  0  0  0  0  0  0  0  0  0  0
   -0.0650  -44.4075  -14.1106 C   0  0  0  0  0  0  0  0  0  0  0  0
    0.8418  -43.4726  -13.6711 C   0  0  0  0  0  0  0  0  0  0  0  0
    1.0932  -42.3517  -14.3906 C   0  0  0  0  0  0  0  0  0  0  0  0
    0.4182  -42.1529  -15.5932 C   0  0  0  0  0  0  0  0  0  0  0  0
   -0.4916  -43.0849  -16.0423 C   0  0  0  0  0  0  0  0  0  0  0  0
   -1.1533  -42.8749  -17.2333 F   0  0  0  0  0  0  0  0  0  0  0  0
   -0.7433  -44.2096  -15.3183 C   0  0  0  0  0  0  0  0  0  0  0  0
    1.7285  -51.8551  -19.7810 C   0  0  0  0  0  0  0  0  0  0  0  0
    2.7554  -52.5603  -19.7832 O   0  0  0  0  0  0  0  0  0  0  0  0
    1.8983  -50.4144  -20.0856 C   0  0  0  0  0  0  0  0  0  0  0  0
    0.9614  -49.7698  -20.8747 C   0  0  0  0  0  0  0  0  0  0  0  0
    1.0697  -48.4317  -21.1879 C   0  0  0  0  0  0  0  0  0  0  0  0
    2.1163  -47.7168  -20.7160 C   0  0  0  0  0  0  0  0  0  0  0  0
    3.0479  -48.3367  -19.9371 N   0  0  0  0  0  0  0  0  0  0  0  0
    2.9443  -49.6578  -19.6267 C   0  0  0  0  0  0  0  0  0  0  0  0
    3.8171  -50.1762  -18.9153 O   0  0  0  0  0  0  0  0  0  0  0  0
    4.1381  -47.5486  -19.4445 C   0  0  0  0  0  0  0  0  0  0  0  0
    3.7123  -46.5185  -18.4972 C   0  0  0  0  0  0  0  0  0  0  0  0
    3.3359  -46.8353  -17.2184 C   0  0  0  0  0  0  0  0  0  0  0  0
    2.9412  -45.8659  -16.3262 C   0  0  0  0  0  0  0  0  0  0  0  0
    2.9276  -44.5318  -16.7444 C   0  0  0  0  0  0  0  0  0  0  0  0
    3.3015  -44.1915  -18.0238 C   0  0  0  0  0  0  0  0  0  0  0  0
    3.6915  -45.1870  -18.8901 C   0  0  0  0  0  0  0  0  0  0  0  0
 20 21  1  0  0  0
 21 22  1  0  0  0
 22 23  2  0  0  0
 22 14  1  0  0  0
 14 15  1  0  0  0
 15 16  1  0  0  0
 16 17  1  0  0  0
 17 18  1  0  0  0
 18 19  1  0  0  0
 17 10  1  0  0  0
 10 11  1  0  0  0
 11 12  2  0  0  0
 11  1  1  0  0  0
  1  2  2  0  0  0
  2  3  1  0  0  0
  3  4  1  0  0  0
  4  5  2  0  0  0
  5  6  1  0  0  0
  6  7  2  0  0  0
  7 26  1  0  0  0
 26 28  1  0  0  0
 28 29  2  0  0  0
 29 30  1  0  0  0
 30 31  2  0  0  0
 31 35  1  0  0  0
 35 36  1  0  0  0
 36 37  1  0  0  0
 37 38  2  0  0  0
 38 39  1  0  0  0
 39 40  2  0  0  0
 40 41  1  0  0  0
 41 42  1  0  0  0
 41 43  2  0  0  0
 31 32  1  0  0  0
 32 33  1  0  0  0
 32 34  2  0  0  0
  7  8  1  0  0  0
  8  9  2  0  0  0
  9 44  1  0  0  0
 44 45  2  0  0  0
 44 46  1  0  0  0
 46 47  2  0  0  0
 47 48  1  0  0  0
 48 49  2  0  0  0
 49 50  1  0  0  0
 50 53  1  0  0  0
 53 54  1  0  0  0
 54 55  2  0  0  0
 55 56  1  0  0  0
 56 57  2  0  0  0
 57 58  1  0  0  0
 58 59  2  0  0  0
 50 51  1  0  0  0
 51 52  2  0  0  0
 19 14  1  0  0  0
  9  1  1  0  0  0
 51 46  1  0  0  0
  8  3  1  0  0  0
 59 54  1  0  0  0
 34 28  1  0  0  0
 43 37  1  0  0  0
 20 24  1  0  0  0
 21 25  1  0  0  0
 10 13  1  0  0  0
 26 27  1  0  0  0
M  END
> <minimizedAffinity>
-8.58701

> <CNNscore>
0.0766804665

> <CNNaffinity>
7.4148864746

> <CNN_VS>
0.5685769320

> <CNNaffinity_variance>
0.3540675044

$$$$
[H]ON([H])C(=O)[C@]1([H])C([H])([H])C([H])([H])[C@@]([H])(N([H])C(=O)c2c(C(=O)c3c([H])c([H])c([H])n(C([H])([H])c4c([H])c([H])c([H])c([H])c4[H])c3=O)c3c(N([H])c4c([H])c([H])c(OC([H])([H])c5c([H])c([H])c([H])c(F)c5[H])c(Cl)c4[H])nc([H])nn3c2[H])C([H])([H])C1([H])[H]


 59 65  0  0  0  0  0  0  0  0999 V2000
   -0.2923  -52.9809  -20.3053 C   0  0  0  0  0  0  0  0  0  0  0  0
   -1.4477  -53.2976  -19.5687 C   0  0  0  0  0  0  0  0  0  0  0  0
   -1.3196  -52.7583  -18.3251 N   0  0  0  0  0  0  0  0  0  0  0  0
   -2.1502  -52.7915  -17.2957 N   0  0  0  0  0  0  0  0  0  0  0  0
   -1.8521  -52.1941  -16.1326 C   0  0  0  0  0  0  0  0  0  0  0  0
   -0.7023  -51.5390  -15.9626 N   0  0  0  0  0  0  0  0  0  0  0  0
    0.1721  -51.4923  -17.0159 C   0  0  0  0  0  0  0  0  0  0  0  0
   -0.1436  -52.1099  -18.2125 C   0  0  0  0  0  0  0  0  0  0  0  0
    0.4857  -52.2543  -19.4457 C   0  0  0  0  0  0  0  0  0  0  0  0
    0.1848  -52.3846  -22.7168 N   0  0  0  0  0  0  0  0  0  0  0  0
   -0.0801  -53.3245  -21.6998 C   0  0  0  0  0  0  0  0  0  0  0  0
   -0.1365  -54.5297  -22.0843 O   0  0  0  0  0  0  0  0  0  0  0  0
    0.2143  -51.3808  -22.4916 H   0  0  0  0  0  0  0  0  0  0  0  0
    1.2376  -52.4433  -26.8774 C   0  0  0  0  0  0  0  0  0  0  0  0
   -0.1948  -52.3328  -26.4108 C   0  0  0  0  0  0  0  0  0  0  0  0
   -0.1974  -51.6810  -25.0286 C   0  0  0  0  0  0  0  0  0  0  0  0
    0.4063  -52.7345  -24.1074 C   0  0  0  0  0  0  0  0  0  0  0  0
    1.8588  -52.8351  -24.4587 C   0  0  0  0  0  0  0  0  0  0  0  0
    2.1254  -53.1306  -25.8945 C   0  0  0  0  0  0  0  0  0  0  0  0
    0.3349  -53.2802  -30.3995 O   0  0  0  0  0  0  0  0  0  0  0  0
    0.3384  -52.7003  -29.1796 N   0  0  0  0  0  0  0  0  0  0  0  0
    1.2678  -53.1234  -28.2141 C   0  0  0  0  0  0  0  0  0  0  0  0
    2.0776  -54.0310  -28.4833 O   0  0  0  0  0  0  0  0  0  0  0  0
    1.2675  -53.5420  -30.6422 H   0  0  0  0  0  0  0  0  0  0  0  0
   -0.3353  -51.9532  -28.9787 H   0  0  0  0  0  0  0  0  0  0  0  0
    1.3892  -50.8351  -16.7893 N   0  0  0  0  0  0  0  0  0  0  0  0
    2.3013  -51.1866  -17.0111 H   0  0  0  0  0  0  0  0  0  0  0  0
    1.3204  -49.5517  -16.1783 C   0  0  0  0  0  0  0  0  0  0  0  0
    2.5076  -48.8993  -15.8686 C   0  0  0  0  0  0  0  0  0  0  0  0
    2.5461  -47.6381  -15.3248 C   0  0  0  0  0  0  0  0  0  0  0  0
    1.3948  -46.9589  -15.0601 C   0  0  0  0  0  0  0  0  0  0  0  0
    0.1886  -47.5870  -15.3568 C   0  0  0  0  0  0  0  0  0  0  0  0
   -1.3236  -46.7304  -15.0250 Cl  0  0  0  0  0  0  0  0  0  0  0  0
    0.1706  -48.8574  -15.9038 C   0  0  0  0  0  0  0  0  0  0  0  0
    1.3311  -45.7076  -14.5211 O   0  0  0  0  0  0  0  0  0  0  0  0
    1.2021  -44.5642  -15.3013 C   0  0  0  0  0  0  0  0  0  0  0  0
    2.5213  -44.2454  -15.9257 C   0  0  0  0  0  0  0  0  0  0  0  0
    3.6775  -44.0318  -15.2136 C   0  0  0  0  0  0  0  0  0  0  0  0
    4.8390  -43.7285  -15.8430 C   0  0  0  0  0  0  0  0  0  0  0  0
    4.8521  -43.6347  -17.2330 C   0  0  0  0  0  0  0  0  0  0  0  0
    3.6984  -43.8483  -17.9553 C   0  0  0  0  0  0  0  0  0  0  0  0
    3.7253  -43.7510  -19.3301 F   0  0  0  0  0  0  0  0  0  0  0  0
    2.5328  -44.1521  -17.3218 C   0  0  0  0  0  0  0  0  0  0  0  0
    1.8211  -51.7628  -19.7732 C   0  0  0  0  0  0  0  0  0  0  0  0
    2.8815  -52.3415  -19.4687 O   0  0  0  0  0  0  0  0  0  0  0  0
    1.9386  -50.4849  -20.5152 C   0  0  0  0  0  0  0  0  0  0  0  0
    0.9195  -49.5520  -20.4309 C   0  0  0  0  0  0  0  0  0  0  0  0
    0.9777  -48.3475  -21.0987 C   0  0  0  0  0  0  0  0  0  0  0  0
    2.0565  -48.0565  -21.8607 C   0  0  0  0  0  0  0  0  0  0  0  0
    3.0692  -48.9645  -21.9541 N   0  0  0  0  0  0  0  0  0  0  0  0
    3.0145  -50.1550  -21.2967 C   0  0  0  0  0  0  0  0  0  0  0  0
    3.9602  -50.9478  -21.4135 O   0  0  0  0  0  0  0  0  0  0  0  0
    4.2023  -48.6209  -22.7605 C   0  0  0  0  0  0  0  0  0  0  0  0
    3.8759  -48.5112  -24.1822 C   0  0  0  0  0  0  0  0  0  0  0  0
    3.4713  -49.6003  -24.9086 C   0  0  0  0  0  0  0  0  0  0  0  0
    3.1588  -49.4956  -26.2438 C   0  0  0  0  0  0  0  0  0  0  0  0
    3.2602  -48.2460  -26.8628 C   0  0  0  0  0  0  0  0  0  0  0  0
    3.6644  -47.1395  -26.1524 C   0  0  0  0  0  0  0  0  0  0  0  0
    3.9686  -47.2803  -24.8177 C   0  0  0  0  0  0  0  0  0  0  0  0
 20 21  1  0  0  0
 21 22  1  0  0  0
 22 23  2  0  0  0
 22 14  1  0  0  0
 14 15  1  0  0  0
 15 16  1  0  0  0
 16 17  1  0  0  0
 17 18  1  0  0  0
 18 19  1  0  0  0
 17 10  1  0  0  0
 10 11  1  0  0  0
 11 12  2  0  0  0
 11  1  1  0  0  0
  1  2  2  0  0  0
  2  3  1  0  0  0
  3  4  1  0  0  0
  4  5  2  0  0  0
  5  6  1  0  0  0
  6  7  2  0  0  0
  7 26  1  0  0  0
 26 28  1  0  0  0
 28 29  2  0  0  0
 29 30  1  0  0  0
 30 31  2  0  0  0
 31 35  1  0  0  0
 35 36  1  0  0  0
 36 37  1  0  0  0
 37 38  2  0  0  0
 38 39  1  0  0  0
 39 40  2  0  0  0
 40 41  1  0  0  0
 41 42  1  0  0  0
 41 43  2  0  0  0
 31 32  1  0  0  0
 32 33  1  0  0  0
 32 34  2  0  0  0
  7  8  1  0  0  0
  8  9  2  0  0  0
  9 44  1  0  0  0
 44 45  2  0  0  0
 44 46  1  0  0  0
 46 47  2  0  0  0
 47 48  1  0  0  0
 48 49  2  0  0  0
 49 50  1  0  0  0
 50 53  1  0  0  0
 53 54  1  0  0  0
 54 55  2  0  0  0
 55 56  1  0  0  0
 56 57  2  0  0  0
 57 58  1  0  0  0
 58 59  2  0  0  0
 50 51  1  0  0  0
 51 52  2  0  0  0
 19 14  1  0  0  0
  9  1  1  0  0  0
 51 46  1  0  0  0
  8  3  1  0  0  0
 59 54  1  0  0  0
 34 28  1  0  0  0
 43 37  1  0  0  0
 20 24  1  0  0  0
 21 25  1  0  0  0
 10 13  1  0  0  0
 26 27  1  0  0  0
M  END
> <minimizedAffinity>
-8.61032

> <CNNscore>
0.0629534200

> <CNNaffinity>
7.3387346268

> <CNN_VS>
0.4619984329

> <CNNaffinity_variance>
0.8654356003

$$$$
[H]ON([H])C(=O)[C@]1([H])C([H])([H])C([H])([H])[C@@]([H])(N([H])C(=O)c2c(C(=O)c3c([H])c([H])c([H])n(C([H])([H])c4c([H])c([H])c([H])c([H])c4[H])c3=O)c3c(N([H])c4c([H])c([H])c(OC([H])([H])c5c([H])c([H])c([H])c(F)c5[H])c(Cl)c4[H])nc([H])nn3c2[H])C([H])([H])C1([H])[H]


 59 65  0  0  0  0  0  0  0  0999 V2000
   -0.4179  -53.0666  -20.3146 C   0  0  0  0  0  0  0  0  0  0  0  0
   -1.5946  -53.3943  -19.6175 C   0  0  0  0  0  0  0  0  0  0  0  0
   -1.5156  -52.8505  -18.3717 N   0  0  0  0  0  0  0  0  0  0  0  0
   -2.3810  -52.8904  -17.3716 N   0  0  0  0  0  0  0  0  0  0  0  0
   -2.1299  -52.2869  -16.2006 C   0  0  0  0  0  0  0  0  0  0  0  0
   -0.9940  -51.6186  -15.9927 N   0  0  0  0  0  0  0  0  0  0  0  0
   -0.0842  -51.5649  -17.0153 C   0  0  0  0  0  0  0  0  0  0  0  0
   -0.3513  -52.1888  -18.2204 C   0  0  0  0  0  0  0  0  0  0  0  0
    0.3219  -52.3293  -19.4306 C   0  0  0  0  0  0  0  0  0  0  0  0
    0.0164  -52.4675  -22.7334 N   0  0  0  0  0  0  0  0  0  0  0  0
   -0.1538  -53.4113  -21.6999 C   0  0  0  0  0  0  0  0  0  0  0  0
   -0.0721  -54.6224  -22.0602 O   0  0  0  0  0  0  0  0  0  0  0  0
   -0.0680  -51.4625  -22.5284 H   0  0  0  0  0  0  0  0  0  0  0  0
    1.0157  -52.4679  -26.9076 C   0  0  0  0  0  0  0  0  0  0  0  0
   -0.4041  -52.6347  -26.4196 C   0  0  0  0  0  0  0  0  0  0  0  0
   -0.5258  -51.9452  -25.0613 C   0  0  0  0  0  0  0  0  0  0  0  0
    0.2904  -52.8173  -24.1147 C   0  0  0  0  0  0  0  0  0  0  0  0
    1.7291  -52.6323  -24.4882 C   0  0  0  0  0  0  0  0  0  0  0  0
    2.0356  -52.9214  -25.9173 C   0  0  0  0  0  0  0  0  0  0  0  0
    2.5167  -54.5950  -29.5801 O   0  0  0  0  0  0  0  0  0  0  0  0
    2.3391  -53.9335  -28.4160 N   0  0  0  0  0  0  0  0  0  0  0  0
    1.1707  -53.1776  -28.2200 C   0  0  0  0  0  0  0  0  0  0  0  0
    0.3096  -53.1160  -29.1181 O   0  0  0  0  0  0  0  0  0  0  0  0
    1.6294  -54.8932  -29.9280 H   0  0  0  0  0  0  0  0  0  0  0  0
    3.0593  -53.9988  -27.6883 H   0  0  0  0  0  0  0  0  0  0  0  0
    1.1171  -50.8937  -16.7486 N   0  0  0  0  0  0  0  0  0  0  0  0
    2.0262  -51.1534  -17.0815 H   0  0  0  0  0  0  0  0  0  0  0  0
    1.0361  -49.7402  -15.9191 C   0  0  0  0  0  0  0  0  0  0  0  0
   -0.0011  -48.8404  -16.1326 C   0  0  0  0  0  0  0  0  0  0  0  0
   -0.1941  -47.7255  -15.3531 C   0  0  0  0  0  0  0  0  0  0  0  0
    0.6434  -47.4491  -14.3143 C   0  0  0  0  0  0  0  0  0  0  0  0
    1.6943  -48.3304  -14.0764 C   0  0  0  0  0  0  0  0  0  0  0  0
    2.7985  -47.9989  -12.7343 Cl  0  0  0  0  0  0  0  0  0  0  0  0
    1.8721  -49.4475  -14.8726 C   0  0  0  0  0  0  0  0  0  0  0  0
    0.5347  -46.3696  -13.4878 O   0  0  0  0  0  0  0  0  0  0  0  0
    0.5573  -45.0622  -13.9602 C   0  0  0  0  0  0  0  0  0  0  0  0
    1.9095  -44.7677  -14.5230 C   0  0  0  0  0  0  0  0  0  0  0  0
    2.1802  -44.6798  -15.8678 C   0  0  0  0  0  0  0  0  0  0  0  0
    3.4355  -44.4266  -16.3121 C   0  0  0  0  0  0  0  0  0  0  0  0
    4.4606  -44.2534  -15.3844 C   0  0  0  0  0  0  0  0  0  0  0  0
    4.1986  -44.3387  -14.0345 C   0  0  0  0  0  0  0  0  0  0  0  0
    5.2225  -44.1665  -13.1277 F   0  0  0  0  0  0  0  0  0  0  0  0
    2.9377  -44.5936  -13.5900 C   0  0  0  0  0  0  0  0  0  0  0  0
    1.6623  -51.8239  -19.7131 C   0  0  0  0  0  0  0  0  0  0  0  0
    2.6937  -52.5226  -19.7216 O   0  0  0  0  0  0  0  0  0  0  0  0
    1.8228  -50.3799  -20.0069 C   0  0  0  0  0  0  0  0  0  0  0  0
    1.0815  -49.8052  -21.0248 C   0  0  0  0  0  0  0  0  0  0  0  0
    1.1904  -48.4675  -21.3393 C   0  0  0  0  0  0  0  0  0  0  0  0
    2.0419  -47.6830  -20.6401 C   0  0  0  0  0  0  0  0  0  0  0  0
    2.7792  -48.2336  -19.6341 N   0  0  0  0  0  0  0  0  0  0  0  0
    2.6746  -49.5541  -19.3216 C   0  0  0  0  0  0  0  0  0  0  0  0
    3.3666  -50.0078  -18.3986 O   0  0  0  0  0  0  0  0  0  0  0  0
    3.6634  -47.3732  -18.9060 C   0  0  0  0  0  0  0  0  0  0  0  0
    4.7290  -46.8165  -19.7393 C   0  0  0  0  0  0  0  0  0  0  0  0
    5.6412  -47.6240  -20.3665 C   0  0  0  0  0  0  0  0  0  0  0  0
    6.6394  -47.1007  -21.1547 C   0  0  0  0  0  0  0  0  0  0  0  0
    6.7152  -45.7135  -21.3119 C   0  0  0  0  0  0  0  0  0  0  0  0
    5.8098  -44.8843  -20.6913 C   0  0  0  0  0  0  0  0  0  0  0  0
    4.8235  -45.4420  -19.9104 C   0  0  0  0  0  0  0  0  0  0  0  0
 20 21  1  0  0  0
 21 22  1  0  0  0
 22 23  2  0  0  0
 22 14  1  0  0  0
 14 15  1  0  0  0
 15 16  1  0  0  0
 16 17  1  0  0  0
 17 18  1  0  0  0
 18 19  1  0  0  0
 17 10  1  0  0  0
 10 11  1  0  0  0
 11 12  2  0  0  0
 11  1  1  0  0  0
  1  2  2  0  0  0
  2  3  1  0  0  0
  3  4  1  0  0  0
  4  5  2  0  0  0
  5  6  1  0  0  0
  6  7  2  0  0  0
  7 26  1  0  0  0
 26 28  1  0  0  0
 28 29  2  0  0  0
 29 30  1  0  0  0
 30 31  2  0  0  0
 31 35  1  0  0  0
 35 36  1  0  0  0
 36 37  1  0  0  0
 37 38  2  0  0  0
 38 39  1  0  0  0
 39 40  2  0  0  0
 40 41  1  0  0  0
 41 42  1  0  0  0
 41 43  2  0  0  0
 31 32  1  0  0  0
 32 33  1  0  0  0
 32 34  2  0  0  0
  7  8  1  0  0  0
  8  9  2  0  0  0
  9 44  1  0  0  0
 44 45  2  0  0  0
 44 46  1  0  0  0
 46 47  2  0  0  0
 47 48  1  0  0  0
 48 49  2  0  0  0
 49 50  1  0  0  0
 50 53  1  0  0  0
 53 54  1  0  0  0
 54 55  2  0  0  0
 55 56  1  0  0  0
 56 57  2  0  0  0
 57 58  1  0  0  0
 58 59  2  0  0  0
 50 51  1  0  0  0
 51 52  2  0  0  0
 19 14  1  0  0  0
  9  1  1  0  0  0
 51 46  1  0  0  0
  8  3  1  0  0  0
 59 54  1  0  0  0
 34 28  1  0  0  0
 43 37  1  0  0  0
 20 24  1  0  0  0
 21 25  1  0  0  0
 10 13  1  0  0  0
 26 27  1  0  0  0
M  END
> <minimizedAffinity>
-8.10841

> <CNNscore>
0.0584982485

> <CNNaffinity>
7.3546476364

> <CNN_VS>
0.4302340150

> <CNNaffinity_variance>
0.4130120277

$$$$
[H]ON([H])C(=O)[C@]1([H])C([H])([H])C([H])([H])[C@@]([H])(N([H])C(=O)c2c(C(=O)c3c([H])c([H])c([H])n(C([H])([H])c4c([H])c([H])c([H])c([H])c4[H])c3=O)c3c(N([H])c4c([H])c([H])c(OC([H])([H])c5c([H])c([H])c([H])c(F)c5[H])c(Cl)c4[H])nc([H])nn3c2[H])C([H])([H])C1([H])[H]


 59 65  0  0  0  0  0  0  0  0999 V2000
    0.5272  -52.4523  -20.1915 C   0  0  0  0  0  0  0  0  0  0  0  0
   -0.5929  -52.6482  -19.3639 C   0  0  0  0  0  0  0  0  0  0  0  0
   -0.3125  -52.1241  -18.1389 N   0  0  0  0  0  0  0  0  0  0  0  0
   -1.0584  -52.0712  -17.0473 N   0  0  0  0  0  0  0  0  0  0  0  0
   -0.6099  -51.5068  -15.9164 C   0  0  0  0  0  0  0  0  0  0  0  0
    0.6107  -50.9731  -15.8427 N   0  0  0  0  0  0  0  0  0  0  0  0
    1.3994  -51.0172  -16.9617 C   0  0  0  0  0  0  0  0  0  0  0  0
    0.9289  -51.5998  -18.1245 C   0  0  0  0  0  0  0  0  0  0  0  0
    1.4409  -51.8089  -19.4019 C   0  0  0  0  0  0  0  0  0  0  0  0
    1.0555  -51.9615  -22.6160 N   0  0  0  0  0  0  0  0  0  0  0  0
    0.5925  -52.8168  -21.5952 C   0  0  0  0  0  0  0  0  0  0  0  0
    0.2114  -53.9599  -21.9846 O   0  0  0  0  0  0  0  0  0  0  0  0
    1.3526  -51.0035  -22.3861 H   0  0  0  0  0  0  0  0  0  0  0  0
    0.8616  -52.1028  -26.9015 C   0  0  0  0  0  0  0  0  0  0  0  0
   -0.0924  -52.8810  -26.0263 C   0  0  0  0  0  0  0  0  0  0  0  0
   -0.2243  -52.1458  -24.6930 C   0  0  0  0  0  0  0  0  0  0  0  0
    1.1282  -52.3345  -24.0163 C   0  0  0  0  0  0  0  0  0  0  0  0
    2.1159  -51.5139  -24.7873 C   0  0  0  0  0  0  0  0  0  0  0  0
    2.1718  -51.8262  -26.2431 C   0  0  0  0  0  0  0  0  0  0  0  0
    2.3558  -54.3589  -29.4701 O   0  0  0  0  0  0  0  0  0  0  0  0
    2.1580  -53.6776  -28.3207 N   0  0  0  0  0  0  0  0  0  0  0  0
    1.0424  -52.8315  -28.2001 C   0  0  0  0  0  0  0  0  0  0  0  0
    0.2467  -52.7090  -29.1508 O   0  0  0  0  0  0  0  0  0  0  0  0
    1.4714  -54.5892  -29.8726 H   0  0  0  0  0  0  0  0  0  0  0  0
    2.8238  -53.7940  -27.5490 H   0  0  0  0  0  0  0  0  0  0  0  0
    2.6915  -50.4883  -16.8370 N   0  0  0  0  0  0  0  0  0  0  0  0
    3.5501  -50.9834  -16.9865 H   0  0  0  0  0  0  0  0  0  0  0  0
    2.7902  -49.1216  -16.4529 C   0  0  0  0  0  0  0  0  0  0  0  0
    2.2699  -48.1537  -17.3035 C   0  0  0  0  0  0  0  0  0  0  0  0
    2.2710  -46.8139  -16.9988 C   0  0  0  0  0  0  0  0  0  0  0  0
    2.7949  -46.3682  -15.8224 C   0  0  0  0  0  0  0  0  0  0  0  0
    3.3265  -47.3136  -14.9498 C   0  0  0  0  0  0  0  0  0  0  0  0
    4.0136  -46.7658  -13.4141 Cl  0  0  0  0  0  0  0  0  0  0  0  0
    3.3163  -48.6580  -15.2748 C   0  0  0  0  0  0  0  0  0  0  0  0
    2.8431  -45.0621  -15.4327 O   0  0  0  0  0  0  0  0  0  0  0  0
    2.4051  -44.0234  -16.2463 C   0  0  0  0  0  0  0  0  0  0  0  0
    3.5306  -43.5791  -17.1224 C   0  0  0  0  0  0  0  0  0  0  0  0
    4.6076  -42.8486  -16.6796 C   0  0  0  0  0  0  0  0  0  0  0  0
    5.5873  -42.4621  -17.5329 C   0  0  0  0  0  0  0  0  0  0  0  0
    5.4936  -42.8159  -18.8772 C   0  0  0  0  0  0  0  0  0  0  0  0
    4.4185  -43.5489  -19.3300 C   0  0  0  0  0  0  0  0  0  0  0  0
    4.3377  -43.8909  -20.6630 F   0  0  0  0  0  0  0  0  0  0  0  0
    3.4352  -43.9356  -18.4721 C   0  0  0  0  0  0  0  0  0  0  0  0
    2.7896  -51.4574  -19.8374 C   0  0  0  0  0  0  0  0  0  0  0  0
    3.7564  -52.2430  -19.8465 O   0  0  0  0  0  0  0  0  0  0  0  0
    3.0416  -50.0714  -20.2984 C   0  0  0  0  0  0  0  0  0  0  0  0
    1.9707  -49.2517  -20.6103 C   0  0  0  0  0  0  0  0  0  0  0  0
    2.1479  -47.9547  -21.0422 C   0  0  0  0  0  0  0  0  0  0  0  0
    3.3989  -47.4564  -21.1680 C   0  0  0  0  0  0  0  0  0  0  0  0
    4.4647  -48.2507  -20.8646 N   0  0  0  0  0  0  0  0  0  0  0  0
    4.2932  -49.5319  -20.4387 C   0  0  0  0  0  0  0  0  0  0  0  0
    5.2939  -50.2146  -20.1754 O   0  0  0  0  0  0  0  0  0  0  0  0
    5.7758  -47.6891  -20.9981 C   0  0  0  0  0  0  0  0  0  0  0  0
    6.2357  -47.0231  -19.7796 C   0  0  0  0  0  0  0  0  0  0  0  0
    5.5417  -47.1275  -18.6028 C   0  0  0  0  0  0  0  0  0  0  0  0
    5.9775  -46.5060  -17.4559 C   0  0  0  0  0  0  0  0  0  0  0  0
    7.1551  -45.7540  -17.5039 C   0  0  0  0  0  0  0  0  0  0  0  0
    7.8675  -45.6358  -18.6749 C   0  0  0  0  0  0  0  0  0  0  0  0
    7.4028  -46.2715  -19.8034 C   0  0  0  0  0  0  0  0  0  0  0  0
 20 21  1  0  0  0
 21 22  1  0  0  0
 22 23  2  0  0  0
 22 14  1  0  0  0
 14 15  1  0  0  0
 15 16  1  0  0  0
 16 17  1  0  0  0
 17 18  1  0  0  0
 18 19  1  0  0  0
 17 10  1  0  0  0
 10 11  1  0  0  0
 11 12  2  0  0  0
 11  1  1  0  0  0
  1  2  2  0  0  0
  2  3  1  0  0  0
  3  4  1  0  0  0
  4  5  2  0  0  0
  5  6  1  0  0  0
  6  7  2  0  0  0
  7 26  1  0  0  0
 26 28  1  0  0  0
 28 29  2  0  0  0
 29 30  1  0  0  0
 30 31  2  0  0  0
 31 35  1  0  0  0
 35 36  1  0  0  0
 36 37  1  0  0  0
 37 38  2  0  0  0
 38 39  1  0  0  0
 39 40  2  0  0  0
 40 41  1  0  0  0
 41 42  1  0  0  0
 41 43  2  0  0  0
 31 32  1  0  0  0
 32 33  1  0  0  0
 32 34  2  0  0  0
  7  8  1  0  0  0
  8  9  2  0  0  0
  9 44  1  0  0  0
 44 45  2  0  0  0
 44 46  1  0  0  0
 46 47  2  0  0  0
 47 48  1  0  0  0
 48 49  2  0  0  0
 49 50  1  0  0  0
 50 53  1  0  0  0
 53 54  1  0  0  0
 54 55  2  0  0  0
 55 56  1  0  0  0
 56 57  2  0  0  0
 57 58  1  0  0  0
 58 59  2  0  0  0
 50 51  1  0  0  0
 51 52  2  0  0  0
 19 14  1  0  0  0
  9  1  1  0  0  0
 51 46  1  0  0  0
  8  3  1  0  0  0
 59 54  1  0  0  0
 34 28  1  0  0  0
 43 37  1  0  0  0
 20 24  1  0  0  0
 21 25  1  0  0  0
 10 13  1  0  0  0
 26 27  1  0  0  0
M  END
> <minimizedAffinity>
-6.93064

> <CNNscore>
0.0582114980

> <CNNaffinity>
7.4968085289

> <CNN_VS>
0.4364004433

> <CNNaffinity_variance>
0.2191468179

$$$$
[H]ON([H])C(=O)[C@]1([H])C([H])([H])C([H])([H])[C@@]([H])(N([H])C(=O)c2c(C(=O)c3c([H])c([H])c([H])n(C([H])([H])c4c([H])c([H])c([H])c([H])c4[H])c3=O)c3c(N([H])c4c([H])c([H])c(OC([H])([H])c5c([H])c([H])c([H])c(F)c5[H])c(Cl)c4[H])nc([H])nn3c2[H])C([H])([H])C1([H])[H]


 59 65  0  0  0  0  0  0  0  0999 V2000
   -0.0914  -52.5296  -19.0322 C   0  0  0  0  0  0  0  0  0  0  0  0
   -1.2588  -52.8223  -18.3045 C   0  0  0  0  0  0  0  0  0  0  0  0
   -1.2007  -52.1517  -17.1209 N   0  0  0  0  0  0  0  0  0  0  0  0
   -2.0670  -52.1172  -16.1214 N   0  0  0  0  0  0  0  0  0  0  0  0
   -1.8386  -51.3894  -15.0184 C   0  0  0  0  0  0  0  0  0  0  0  0
   -0.7254  -50.6670  -14.8806 N   0  0  0  0  0  0  0  0  0  0  0  0
    0.1849  -50.6886  -15.9039 C   0  0  0  0  0  0  0  0  0  0  0  0
   -0.0588  -51.4407  -17.0387 C   0  0  0  0  0  0  0  0  0  0  0  0
    0.6219  -51.6823  -18.2287 C   0  0  0  0  0  0  0  0  0  0  0  0
   -0.0940  -52.2768  -21.5490 N   0  0  0  0  0  0  0  0  0  0  0  0
    0.1874  -53.0053  -20.3752 C   0  0  0  0  0  0  0  0  0  0  0  0
    0.7058  -54.1453  -20.5624 O   0  0  0  0  0  0  0  0  0  0  0  0
   -0.5461  -51.3546  -21.4836 H   0  0  0  0  0  0  0  0  0  0  0  0
   -0.1398  -53.1919  -25.7422 C   0  0  0  0  0  0  0  0  0  0  0  0
   -0.4401  -54.2312  -24.6880 C   0  0  0  0  0  0  0  0  0  0  0  0
   -0.9947  -53.5155  -23.4569 C   0  0  0  0  0  0  0  0  0  0  0  0
    0.1961  -52.7527  -22.8886 C   0  0  0  0  0  0  0  0  0  0  0  0
    0.4972  -51.6432  -23.8487 C   0  0  0  0  0  0  0  0  0  0  0  0
    0.7378  -52.0903  -25.2495 C   0  0  0  0  0  0  0  0  0  0  0  0
    1.4431  -53.6157  -29.0941 O   0  0  0  0  0  0  0  0  0  0  0  0
    0.8986  -53.0496  -27.9953 N   0  0  0  0  0  0  0  0  0  0  0  0
    0.4498  -53.8678  -26.9446 C   0  0  0  0  0  0  0  0  0  0  0  0
    0.5501  -55.1065  -27.0319 O   0  0  0  0  0  0  0  0  0  0  0  0
    1.9251  -54.4495  -28.8303 H   0  0  0  0  0  0  0  0  0  0  0  0
    0.8270  -52.0276  -27.9421 H   0  0  0  0  0  0  0  0  0  0  0  0
    1.3633  -49.9552  -15.7080 N   0  0  0  0  0  0  0  0  0  0  0  0
    2.2987  -50.3030  -15.8011 H   0  0  0  0  0  0  0  0  0  0  0  0
    1.2137  -48.5906  -15.3327 C   0  0  0  0  0  0  0  0  0  0  0  0
    2.3518  -47.8635  -15.0055 C   0  0  0  0  0  0  0  0  0  0  0  0
    2.3168  -46.5290  -14.6802 C   0  0  0  0  0  0  0  0  0  0  0  0
    1.1370  -45.8473  -14.6643 C   0  0  0  0  0  0  0  0  0  0  0  0
   -0.0217  -46.5489  -14.9850 C   0  0  0  0  0  0  0  0  0  0  0  0
   -1.5691  -45.6911  -14.9736 Cl  0  0  0  0  0  0  0  0  0  0  0  0
    0.0341  -47.8923  -15.3095 C   0  0  0  0  0  0  0  0  0  0  0  0
    1.0011  -44.5262  -14.3536 O   0  0  0  0  0  0  0  0  0  0  0  0
    0.8825  -43.5389  -15.3252 C   0  0  0  0  0  0  0  0  0  0  0  0
    2.1928  -43.3803  -16.0252 C   0  0  0  0  0  0  0  0  0  0  0  0
    3.3506  -42.9725  -15.4066 C   0  0  0  0  0  0  0  0  0  0  0  0
    4.5034  -42.8320  -16.1057 C   0  0  0  0  0  0  0  0  0  0  0  0
    4.5056  -43.1081  -17.4714 C   0  0  0  0  0  0  0  0  0  0  0  0
    3.3502  -43.5184  -18.0998 C   0  0  0  0  0  0  0  0  0  0  0  0
    3.3663  -43.7870  -19.4518 F   0  0  0  0  0  0  0  0  0  0  0  0
    2.1934  -43.6584  -17.3965 C   0  0  0  0  0  0  0  0  0  0  0  0
    1.9461  -51.1653  -18.5622 C   0  0  0  0  0  0  0  0  0  0  0  0
    2.9720  -51.3588  -17.8825 O   0  0  0  0  0  0  0  0  0  0  0  0
    2.0938  -50.3474  -19.7896 C   0  0  0  0  0  0  0  0  0  0  0  0
    1.3989  -49.1556  -19.9019 C   0  0  0  0  0  0  0  0  0  0  0  0
    1.5005  -48.3558  -21.0200 C   0  0  0  0  0  0  0  0  0  0  0  0
    2.2997  -48.7348  -22.0432 C   0  0  0  0  0  0  0  0  0  0  0  0
    2.9913  -49.9058  -21.9483 N   0  0  0  0  0  0  0  0  0  0  0  0
    2.8925  -50.6982  -20.8461 C   0  0  0  0  0  0  0  0  0  0  0  0
    3.5410  -51.7539  -20.8073 O   0  0  0  0  0  0  0  0  0  0  0  0
    3.8371  -50.2729  -23.0447 C   0  0  0  0  0  0  0  0  0  0  0  0
    5.2122  -49.8006  -22.8846 C   0  0  0  0  0  0  0  0  0  0  0  0
    6.1912  -50.6113  -22.3730 C   0  0  0  0  0  0  0  0  0  0  0  0
    7.4853  -50.1689  -22.2281 C   0  0  0  0  0  0  0  0  0  0  0  0
    7.7969  -48.8617  -22.6143 C   0  0  0  0  0  0  0  0  0  0  0  0
    6.8295  -48.0308  -23.1302 C   0  0  0  0  0  0  0  0  0  0  0  0
    5.5449  -48.5065  -23.2620 C   0  0  0  0  0  0  0  0  0  0  0  0
 20 21  1  0  0  0
 21 22  1  0  0  0
 22 23  2  0  0  0
 22 14  1  0  0  0
 14 15  1  0  0  0
 15 16  1  0  0  0
 16 17  1  0  0  0
 17 18  1  0  0  0
 18 19  1  0  0  0
 17 10  1  0  0  0
 10 11  1  0  0  0
 11 12  2  0  0  0
 11  1  1  0  0  0
  1  2  2  0  0  0
  2  3  1  0  0  0
  3  4  1  0  0  0
  4  5  2  0  0  0
  5  6  1  0  0  0
  6  7  2  0  0  0
  7 26  1  0  0  0
 26 28  1  0  0  0
 28 29  2  0  0  0
 29 30  1  0  0  0
 30 31  2  0  0  0
 31 35  1  0  0  0
 35 36  1  0  0  0
 36 37  1  0  0  0
 37 38  2  0  0  0
 38 39  1  0  0  0
 39 40  2  0  0  0
 40 41  1  0  0  0
 41 42  1  0  0  0
 41 43  2  0  0  0
 31 32  1  0  0  0
 32 33  1  0  0  0
 32 34  2  0  0  0
  7  8  1  0  0  0
  8  9  2  0  0  0
  9 44  1  0  0  0
 44 45  2  0  0  0
 44 46  1  0  0  0
 46 47  2  0  0  0
 47 48  1  0  0  0
 48 49  2  0  0  0
 49 50  1  0  0  0
 50 53  1  0  0  0
 53 54  1  0  0  0
 54 55  2  0  0  0
 55 56  1  0  0  0
 56 57  2  0  0  0
 57 58  1  0  0  0
 58 59  2  0  0  0
 50 51  1  0  0  0
 51 52  2  0  0  0
 19 14  1  0  0  0
  9  1  1  0  0  0
 51 46  1  0  0  0
  8  3  1  0  0  0
 59 54  1  0  0  0
 34 28  1  0  0  0
 43 37  1  0  0  0
 20 24  1  0  0  0
 21 25  1  0  0  0
 10 13  1  0  0  0
 26 27  1  0  0  0
M  END
> <minimizedAffinity>
-8.17511

> <CNNscore>
0.0424506702

> <CNNaffinity>
7.4578390121

> <CNN_VS>
0.3165902495

> <CNNaffinity_variance>
0.4250174165

$$$$
[H]c1nc(N([H])c2c([H])c(C#CC([H])([H])N([H])[H])n(OC([H])([H])[H])c2[H])c2c(n1)c([H])c([H])n2[H]


 25 27  0  0  0  0  0  0  0  0999 V2000
    0.4689  -51.5643  -22.1107 N   0  0  0  0  0  0  0  0  0  0  0  0
    0.5983  -51.8556  -23.4165 C   0  0  0  0  0  0  0  0  0  0  0  0
    0.1198  -53.1126  -23.6711 C   0  0  0  0  0  0  0  0  0  0  0  0
   -0.3141  -53.5709  -22.4184 C   0  0  0  0  0  0  0  0  0  0  0  0
   -0.0894  -52.5985  -21.4671 C   0  0  0  0  0  0  0  0  0  0  0  0
    1.8687  -49.5566  -21.9771 C   0  0  0  0  0  0  0  0  0  0  0  0
    0.8453  -50.3951  -21.5170 O   0  0  0  0  0  0  0  0  0  0  0  0
    0.0217  -53.8863  -24.8475 N   0  0  0  0  0  0  0  0  0  0  0  0
   -0.4944  -54.8196  -24.8210 H   0  0  0  0  0  0  0  0  0  0  0  0
    0.5689  -53.5145  -26.0979 C   0  0  0  0  0  0  0  0  0  0  0  0
    1.8832  -53.5001  -26.3538 N   0  0  0  0  0  0  0  0  0  0  0  0
    2.3734  -53.1450  -27.5425 C   0  0  0  0  0  0  0  0  0  0  0  0
    1.5325  -52.7935  -28.5065 N   0  0  0  0  0  0  0  0  0  0  0  0
    0.2005  -52.7802  -28.3344 C   0  0  0  0  0  0  0  0  0  0  0  0
   -0.8718  -52.4657  -29.1458 C   0  0  0  0  0  0  0  0  0  0  0  0
   -2.0285  -52.6417  -28.4098 C   0  0  0  0  0  0  0  0  0  0  0  0
   -1.6700  -53.0505  -27.1893 N   0  0  0  0  0  0  0  0  0  0  0  0
   -0.3095  -53.1440  -27.1153 C   0  0  0  0  0  0  0  0  0  0  0  0
   -2.2633  -53.2864  -26.3568 H   0  0  0  0  0  0  0  0  0  0  0  0
   -0.3661  -52.6109  -20.0586 C   0  0  0  0  0  0  0  0  0  0  0  0
   -0.5907  -52.6031  -18.8607 C   0  0  0  0  0  0  0  0  0  0  0  0
   -0.8369  -52.5993  -17.4149 C   0  0  0  0  0  0  0  0  0  0  0  0
   -2.1093  -53.2824  -17.1974 N   0  0  0  0  0  0  0  0  0  0  0  0
   -2.1661  -54.0398  -17.9417 H   0  0  0  0  0  0  0  0  0  0  0  0
   -2.0840  -53.7973  -16.2802 H   0  0  0  0  0  0  0  0  0  0  0  0
  6  7  1  0  0  0
  7  1  1  0  0  0
  1  2  1  0  0  0
  2  3  2  0  0  0
  3  8  1  0  0  0
  8 10  1  0  0  0
 10 11  2  0  0  0
 11 12  1  0  0  0
 12 13  2  0  0  0
 13 14  1  0  0  0
 14 15  1  0  0  0
 15 16  2  0  0  0
 16 17  1  0  0  0
 17 18  1  0  0  0
  3  4  1  0  0  0
  4  5  2  0  0  0
  5 20  1  0  0  0
 20 21  3  0  0  0
 21 22  1  0  0  0
 22 23  1  0  0  0
  5  1  1  0  0  0
 18 10  1  0  0  0
 18 14  2  0  0  0
  8  9  1  0  0  0
 17 19  1  0  0  0
 23 24  1  0  0  0
 23 25  1  0  0  0
M  END
> <minimizedAffinity>
-7.26164

> <CNNscore>
0.5514036417

> <CNNaffinity>
6.3439049721

> <CNN_VS>
3.4980523586

> <CNNaffinity_variance>
0.0098179709

$$$$
[H]c1nc(N([H])c2c([H])c(C#CC([H])([H])N([H])[H])n(OC([H])([H])[H])c2[H])c2c(n1)c([H])c([H])n2[H]


 25 27  0  0  0  0  0  0  0  0999 V2000
    0.1673  -53.0842  -21.4550 N   0  0  0  0  0  0  0  0  0  0  0  0
   -0.2096  -54.0005  -22.3632 C   0  0  0  0  0  0  0  0  0  0  0  0
   -0.2497  -53.4413  -23.6120 C   0  0  0  0  0  0  0  0  0  0  0  0
    0.1326  -52.1085  -23.3995 C   0  0  0  0  0  0  0  0  0  0  0  0
    0.3861  -51.9083  -22.0591 C   0  0  0  0  0  0  0  0  0  0  0  0
   -0.6714  -53.0408  -19.1522 C   0  0  0  0  0  0  0  0  0  0  0  0
    0.3098  -53.3051  -20.1163 O   0  0  0  0  0  0  0  0  0  0  0  0
   -0.5750  -53.9524  -24.8868 N   0  0  0  0  0  0  0  0  0  0  0  0
   -1.3753  -54.6511  -24.9841 H   0  0  0  0  0  0  0  0  0  0  0  0
    0.0939  -53.6035  -26.0834 C   0  0  0  0  0  0  0  0  0  0  0  0
    1.4205  -53.6946  -26.2413 N   0  0  0  0  0  0  0  0  0  0  0  0
    2.0269  -53.3589  -27.3809 C   0  0  0  0  0  0  0  0  0  0  0  0
    1.2930  -52.9192  -28.3950 N   0  0  0  0  0  0  0  0  0  0  0  0
   -0.0425  -52.7974  -28.3214 C   0  0  0  0  0  0  0  0  0  0  0  0
   -1.0208  -52.3781  -29.2013 C   0  0  0  0  0  0  0  0  0  0  0  0
   -2.2404  -52.4707  -28.5574 C   0  0  0  0  0  0  0  0  0  0  0  0
   -2.0102  -52.9319  -27.3247 N   0  0  0  0  0  0  0  0  0  0  0  0
   -0.6714  -53.1408  -27.1530 C   0  0  0  0  0  0  0  0  0  0  0  0
   -2.6822  -53.1333  -26.5447 H   0  0  0  0  0  0  0  0  0  0  0  0
    0.8018  -50.7190  -21.3711 C   0  0  0  0  0  0  0  0  0  0  0  0
    1.1547  -49.7200  -20.7687 C   0  0  0  0  0  0  0  0  0  0  0  0
    1.5561  -48.5157  -20.0342 C   0  0  0  0  0  0  0  0  0  0  0  0
    1.4333  -48.8230  -18.6118 N   0  0  0  0  0  0  0  0  0  0  0  0
    1.6836  -49.8517  -18.5118 H   0  0  0  0  0  0  0  0  0  0  0  0
    2.1722  -48.3048  -18.0711 H   0  0  0  0  0  0  0  0  0  0  0  0
  6  7  1  0  0  0
  7  1  1  0  0  0
  1  2  1  0  0  0
  2  3  2  0  0  0
  3  8  1  0  0  0
  8 10  1  0  0  0
 10 11  2  0  0  0
 11 12  1  0  0  0
 12 13  2  0  0  0
 13 14  1  0  0  0
 14 15  1  0  0  0
 15 16  2  0  0  0
 16 17  1  0  0  0
 17 18  1  0  0  0
  3  4  1  0  0  0
  4  5  2  0  0  0
  5 20  1  0  0  0
 20 21  3  0  0  0
 21 22  1  0  0  0
 22 23  1  0  0  0
  5  1  1  0  0  0
 18 10  1  0  0  0
 18 14  2  0  0  0
  8  9  1  0  0  0
 17 19  1  0  0  0
 23 24  1  0  0  0
 23 25  1  0  0  0
M  END
> <minimizedAffinity>
-6.95452

> <CNNscore>
0.4683081210

> <CNNaffinity>
6.2202658653

> <CNN_VS>
2.9130010605

> <CNNaffinity_variance>
0.0309639573

$$$$
[H]c1nc(N([H])c2c([H])c(C#CC([H])([H])N([H])[H])n(OC([H])([H])[H])c2[H])c2c(n1)c([H])c([H])n2[H]


 25 27  0  0  0  0  0  0  0  0999 V2000
    0.4941  -51.8065  -21.6278 N   0  0  0  0  0  0  0  0  0  0  0  0
    0.4256  -51.7888  -20.2855 C   0  0  0  0  0  0  0  0  0  0  0  0
   -0.1253  -52.9538  -19.8239 C   0  0  0  0  0  0  0  0  0  0  0  0
   -0.3900  -53.6891  -20.9887 C   0  0  0  0  0  0  0  0  0  0  0  0
    0.0003  -52.9620  -22.0932 C   0  0  0  0  0  0  0  0  0  0  0  0
    1.4382  -49.5656  -21.9368 C   0  0  0  0  0  0  0  0  0  0  0  0
    0.9896  -50.8052  -22.4107 O   0  0  0  0  0  0  0  0  0  0  0  0
   -0.4159  -53.4357  -18.5295 N   0  0  0  0  0  0  0  0  0  0  0  0
    0.0304  -54.3451  -18.1949 H   0  0  0  0  0  0  0  0  0  0  0  0
   -1.2775  -52.7919  -17.6106 C   0  0  0  0  0  0  0  0  0  0  0  0
   -2.5407  -53.1770  -17.3885 N   0  0  0  0  0  0  0  0  0  0  0  0
   -3.3327  -52.5521  -16.5159 C   0  0  0  0  0  0  0  0  0  0  0  0
   -2.8556  -51.5128  -15.8433 N   0  0  0  0  0  0  0  0  0  0  0  0
   -1.6011  -51.0612  -16.0053 C   0  0  0  0  0  0  0  0  0  0  0  0
   -0.8700  -50.0298  -15.4495 C   0  0  0  0  0  0  0  0  0  0  0  0
    0.3915  -50.0500  -16.0141 C   0  0  0  0  0  0  0  0  0  0  0  0
    0.4258  -51.0622  -16.8856 N   0  0  0  0  0  0  0  0  0  0  0  0
   -0.7823  -51.6991  -16.9005 C   0  0  0  0  0  0  0  0  0  0  0  0
    1.2065  -51.3924  -17.5038 H   0  0  0  0  0  0  0  0  0  0  0  0
   -0.0720  -53.2991  -23.4867 C   0  0  0  0  0  0  0  0  0  0  0  0
   -0.1519  -53.5747  -24.6712 C   0  0  0  0  0  0  0  0  0  0  0  0
   -0.2662  -53.9229  -26.0913 C   0  0  0  0  0  0  0  0  0  0  0  0
    0.0301  -55.3483  -26.2059 N   0  0  0  0  0  0  0  0  0  0  0  0
   -0.3411  -55.7971  -25.3161 H   0  0  0  0  0  0  0  0  0  0  0  0
   -0.5386  -55.7679  -26.9853 H   0  0  0  0  0  0  0  0  0  0  0  0
  6  7  1  0  0  0
  7  1  1  0  0  0
  1  2  1  0  0  0
  2  3  2  0  0  0
  3  8  1  0  0  0
  8 10  1  0  0  0
 10 11  2  0  0  0
 11 12  1  0  0  0
 12 13  2  0  0  0
 13 14  1  0  0  0
 14 15  1  0  0  0
 15 16  2  0  0  0
 16 17  1  0  0  0
 17 18  1  0  0  0
  3  4  1  0  0  0
  4  5  2  0  0  0
  5 20  1  0  0  0
 20 21  3  0  0  0
 21 22  1  0  0  0
 22 23  1  0  0  0
  5  1  1  0  0  0
 18 10  1  0  0  0
 18 14  2  0  0  0
  8  9  1  0  0  0
 17 19  1  0  0  0
 23 24  1  0  0  0
 23 25  1  0  0  0
M  END
> <minimizedAffinity>
-6.03710

> <CNNscore>
0.3906644285

> <CNNaffinity>
5.8838500977

> <CNN_VS>
2.2986109257

> <CNNaffinity_variance>
0.0124635026

$$$$
[H]c1nc(N([H])c2c([H])c(C#CC([H])([H])N([H])[H])n(OC([H])([H])[H])c2[H])c2c(n1)c([H])c([H])n2[H]


 25 27  0  0  0  0  0  0  0  0999 V2000
    0.4303  -51.7158  -19.7324 N   0  0  0  0  0  0  0  0  0  0  0  0
    0.3173  -51.4245  -18.4251 C   0  0  0  0  0  0  0  0  0  0  0  0
   -0.5880  -52.2611  -17.8299 C   0  0  0  0  0  0  0  0  0  0  0  0
   -1.0226  -53.0898  -18.8748 C   0  0  0  0  0  0  0  0  0  0  0  0
   -0.3809  -52.7362  -20.0428 C   0  0  0  0  0  0  0  0  0  0  0  0
    0.9323  -49.8772  -21.2737 C   0  0  0  0  0  0  0  0  0  0  0  0
    1.2447  -51.0764  -20.6208 O   0  0  0  0  0  0  0  0  0  0  0  0
   -1.0661  -52.3794  -16.5071 N   0  0  0  0  0  0  0  0  0  0  0  0
   -0.5049  -52.9400  -15.7937 H   0  0  0  0  0  0  0  0  0  0  0  0
   -2.2659  -51.7976  -16.0348 C   0  0  0  0  0  0  0  0  0  0  0  0
   -3.4294  -52.4571  -15.9666 N   0  0  0  0  0  0  0  0  0  0  0  0
   -4.5472  -51.8847  -15.5170 C   0  0  0  0  0  0  0  0  0  0  0  0
   -4.5082  -50.6185  -15.1231 N   0  0  0  0  0  0  0  0  0  0  0  0
   -3.3838  -49.8848  -15.1583 C   0  0  0  0  0  0  0  0  0  0  0  0
   -3.0727  -48.5830  -14.8180 C   0  0  0  0  0  0  0  0  0  0  0  0
   -1.7293  -48.3850  -15.0763 C   0  0  0  0  0  0  0  0  0  0  0  0
   -1.2395  -49.5308  -15.5584 N   0  0  0  0  0  0  0  0  0  0  0  0
   -2.2319  -50.4672  -15.6193 C   0  0  0  0  0  0  0  0  0  0  0  0
   -0.2658  -49.7699  -15.8673 H   0  0  0  0  0  0  0  0  0  0  0  0
   -0.4994  -53.2936  -21.3603 C   0  0  0  0  0  0  0  0  0  0  0  0
   -0.5964  -53.7476  -22.4872 C   0  0  0  0  0  0  0  0  0  0  0  0
   -0.7355  -54.2827  -23.8456 C   0  0  0  0  0  0  0  0  0  0  0  0
   -1.5597  -55.4844  -23.7481 N   0  0  0  0  0  0  0  0  0  0  0  0
   -2.2558  -55.2994  -22.9657 H   0  0  0  0  0  0  0  0  0  0  0  0
   -2.1423  -55.5873  -24.6180 H   0  0  0  0  0  0  0  0  0  0  0  0
  6  7  1  0  0  0
  7  1  1  0  0  0
  1  2  1  0  0  0
  2  3  2  0  0  0
  3  8  1  0  0  0
  8 10  1  0  0  0
 10 11  2  0  0  0
 11 12  1  0  0  0
 12 13  2  0  0  0
 13 14  1  0  0  0
 14 15  1  0  0  0
 15 16  2  0  0  0
 16 17  1  0  0  0
 17 18  1  0  0  0
  3  4  1  0  0  0
  4  5  2  0  0  0
  5 20  1  0  0  0
 20 21  3  0  0  0
 21 22  1  0  0  0
 22 23  1  0  0  0
  5  1  1  0  0  0
 18 10  1  0  0  0
 18 14  2  0  0  0
  8  9  1  0  0  0
 17 19  1  0  0  0
 23 24  1  0  0  0
 23 25  1  0  0  0
M  END
> <minimizedAffinity>
-5.88369

> <CNNscore>
0.3900428712

> <CNNaffinity>
5.7672948837

> <CNN_VS>
2.2494921684

> <CNNaffinity_variance>
0.1199843138

$$$$
[H]c1nc(N([H])c2c([H])c(C#CC([H])([H])N([H])[H])n(OC([H])([H])[H])c2[H])c2c(n1)c([H])c([H])n2[H]


 25 27  0  0  0  0  0  0  0  0999 V2000
    1.3199  -52.3094  -20.6107 N   0  0  0  0  0  0  0  0  0  0  0  0
    1.3155  -52.3897  -21.9523 C   0  0  0  0  0  0  0  0  0  0  0  0
    0.0299  -52.3950  -22.4224 C   0  0  0  0  0  0  0  0  0  0  0  0
   -0.7557  -52.3116  -21.2633 C   0  0  0  0  0  0  0  0  0  0  0  0
    0.0612  -52.2596  -20.1538 C   0  0  0  0  0  0  0  0  0  0  0  0
    3.4936  -51.3795  -19.9637 C   0  0  0  0  0  0  0  0  0  0  0  0
    2.4318  -52.2818  -19.8206 O   0  0  0  0  0  0  0  0  0  0  0  0
   -0.5215  -52.4628  -23.7199 N   0  0  0  0  0  0  0  0  0  0  0  0
   -1.0708  -51.6317  -24.1015 H   0  0  0  0  0  0  0  0  0  0  0  0
   -0.4020  -53.5773  -24.5829 C   0  0  0  0  0  0  0  0  0  0  0  0
   -0.7426  -54.8236  -24.2310 N   0  0  0  0  0  0  0  0  0  0  0  0
   -0.6199  -55.8577  -25.0645 C   0  0  0  0  0  0  0  0  0  0  0  0
   -0.1444  -55.6476  -26.2851 N   0  0  0  0  0  0  0  0  0  0  0  0
    0.2207  -54.4300  -26.7188 C   0  0  0  0  0  0  0  0  0  0  0  0
    0.7316  -53.9444  -27.9065 C   0  0  0  0  0  0  0  0  0  0  0  0
    0.9146  -52.5816  -27.7654 C   0  0  0  0  0  0  0  0  0  0  0  0
    0.5270  -52.2496  -26.5306 N   0  0  0  0  0  0  0  0  0  0  0  0
    0.0970  -53.3633  -25.8670 C   0  0  0  0  0  0  0  0  0  0  0  0
    0.5169  -51.3137  -26.0567 H   0  0  0  0  0  0  0  0  0  0  0  0
   -0.2837  -52.1702  -18.7633 C   0  0  0  0  0  0  0  0  0  0  0  0
   -0.5606  -52.0806  -17.5798 C   0  0  0  0  0  0  0  0  0  0  0  0
   -0.8734  -51.9865  -16.1500 C   0  0  0  0  0  0  0  0  0  0  0  0
   -2.2890  -52.3133  -16.0009 N   0  0  0  0  0  0  0  0  0  0  0  0
   -2.5007  -53.0440  -16.7440 H   0  0  0  0  0  0  0  0  0  0  0  0
   -2.4465  -52.8001  -15.0816 H   0  0  0  0  0  0  0  0  0  0  0  0
  6  7  1  0  0  0
  7  1  1  0  0  0
  1  2  1  0  0  0
  2  3  2  0  0  0
  3  8  1  0  0  0
  8 10  1  0  0  0
 10 11  2  0  0  0
 11 12  1  0  0  0
 12 13  2  0  0  0
 13 14  1  0  0  0
 14 15  1  0  0  0
 15 16  2  0  0  0
 16 17  1  0  0  0
 17 18  1  0  0  0
  3  4  1  0  0  0
  4  5  2  0  0  0
  5 20  1  0  0  0
 20 21  3  0  0  0
 21 22  1  0  0  0
 22 23  1  0  0  0
  5  1  1  0  0  0
 18 10  1  0  0  0
 18 14  2  0  0  0
  8  9  1  0  0  0
 17 19  1  0  0  0
 23 24  1  0  0  0
 23 25  1  0  0  0
M  END
> <minimizedAffinity>
-6.56545

> <CNNscore>
0.3781799972

> <CNNaffinity>
5.9765381813

> <CNN_VS>
2.2602071762

> <CNNaffinity_variance>
0.0385744870

$$$$
[H]c1nc(N([H])c2c([H])c(C#CC([H])([H])N([H])[H])n(OC([H])([H])[H])c2[H])c2c(n1)c([H])c([H])n2[H]


 25 27  0  0  0  0  0  0  0  0999 V2000
    1.0539  -52.3542  -21.5216 N   0  0  0  0  0  0  0  0  0  0  0  0
    0.9303  -52.2672  -20.1860 C   0  0  0  0  0  0  0  0  0  0  0  0
   -0.1434  -53.0021  -19.7607 C   0  0  0  0  0  0  0  0  0  0  0  0
   -0.6701  -53.5478  -20.9407 C   0  0  0  0  0  0  0  0  0  0  0  0
    0.0847  -53.1351  -22.0182 C   0  0  0  0  0  0  0  0  0  0  0  0
    1.9632  -50.4177  -22.7181 C   0  0  0  0  0  0  0  0  0  0  0  0
    2.0168  -51.7442  -22.2712 O   0  0  0  0  0  0  0  0  0  0  0  0
   -0.7020  -53.2441  -18.4873 N   0  0  0  0  0  0  0  0  0  0  0  0
   -0.9982  -54.2343  -18.2230 H   0  0  0  0  0  0  0  0  0  0  0  0
   -0.9080  -52.2504  -17.5018 C   0  0  0  0  0  0  0  0  0  0  0  0
   -0.0288  -51.2741  -17.2425 N   0  0  0  0  0  0  0  0  0  0  0  0
   -0.2475  -50.3487  -16.3071 C   0  0  0  0  0  0  0  0  0  0  0  0
   -1.3739  -50.3943  -15.6077 N   0  0  0  0  0  0  0  0  0  0  0  0
   -2.3085  -51.3388  -15.8034 C   0  0  0  0  0  0  0  0  0  0  0  0
   -3.5360  -51.6115  -15.2322 C   0  0  0  0  0  0  0  0  0  0  0  0
   -4.0542  -52.7329  -15.8522 C   0  0  0  0  0  0  0  0  0  0  0  0
   -3.1693  -53.1292  -16.7715 N   0  0  0  0  0  0  0  0  0  0  0  0
   -2.0897  -52.2926  -16.7632 C   0  0  0  0  0  0  0  0  0  0  0  0
   -3.2077  -53.9379  -17.4387 H   0  0  0  0  0  0  0  0  0  0  0  0
   -0.0675  -53.4336  -23.4140 C   0  0  0  0  0  0  0  0  0  0  0  0
   -0.1957  -53.6663  -24.6034 C   0  0  0  0  0  0  0  0  0  0  0  0
   -0.3734  -53.9375  -26.0338 C   0  0  0  0  0  0  0  0  0  0  0  0
    0.2140  -55.2488  -26.2953 N   0  0  0  0  0  0  0  0  0  0  0  0
    0.0411  -55.8270  -25.4196 H   0  0  0  0  0  0  0  0  0  0  0  0
   -0.3248  -55.7338  -27.0578 H   0  0  0  0  0  0  0  0  0  0  0  0
  6  7  1  0  0  0
  7  1  1  0  0  0
  1  2  1  0  0  0
  2  3  2  0  0  0
  3  8  1  0  0  0
  8 10  1  0  0  0
 10 11  2  0  0  0
 11 12  1  0  0  0
 12 13  2  0  0  0
 13 14  1  0  0  0
 14 15  1  0  0  0
 15 16  2  0  0  0
 16 17  1  0  0  0
 17 18  1  0  0  0
  3  4  1  0  0  0
  4  5  2  0  0  0
  5 20  1  0  0  0
 20 21  3  0  0  0
 21 22  1  0  0  0
 22 23  1  0  0  0
  5  1  1  0  0  0
 18 10  1  0  0  0
 18 14  2  0  0  0
  8  9  1  0  0  0
 17 19  1  0  0  0
 23 24  1  0  0  0
 23 25  1  0  0  0
M  END
> <minimizedAffinity>
-6.28429

> <CNNscore>
0.3278969526

> <CNNaffinity>
5.6861009598

> <CNN_VS>
1.8644552231

> <CNNaffinity_variance>
0.1067773551

$$$$
[H]c1nc(N([H])c2c([H])c(C#CC([H])([H])N([H])[H])n(OC([H])([H])[H])c2[H])c2c(n1)c([H])c([H])n2[H]


 25 27  0  0  0  0  0  0  0  0999 V2000
   -0.2641  -52.4751  -22.6245 N   0  0  0  0  0  0  0  0  0  0  0  0
   -0.7520  -53.0706  -21.5227 C   0  0  0  0  0  0  0  0  0  0  0  0
    0.1043  -52.8928  -20.4696 C   0  0  0  0  0  0  0  0  0  0  0  0
    1.1571  -52.1408  -21.0114 C   0  0  0  0  0  0  0  0  0  0  0  0
    0.9100  -51.8930  -22.3450 C   0  0  0  0  0  0  0  0  0  0  0  0
   -0.6883  -53.4322  -24.8410 C   0  0  0  0  0  0  0  0  0  0  0  0
   -0.8643  -52.4583  -23.8496 O   0  0  0  0  0  0  0  0  0  0  0  0
    0.0702  -53.3040  -19.1198 N   0  0  0  0  0  0  0  0  0  0  0  0
    0.6126  -54.1728  -18.8214 H   0  0  0  0  0  0  0  0  0  0  0  0
   -0.6468  -52.6381  -18.0983 C   0  0  0  0  0  0  0  0  0  0  0  0
   -1.8096  -53.0809  -17.6032 N   0  0  0  0  0  0  0  0  0  0  0  0
   -2.4659  -52.4335  -16.6392 C   0  0  0  0  0  0  0  0  0  0  0  0
   -1.9516  -51.3118  -16.1520 N   0  0  0  0  0  0  0  0  0  0  0  0
   -0.7911  -50.7981  -16.5914 C   0  0  0  0  0  0  0  0  0  0  0  0
   -0.0502  -49.6784  -16.2681 C   0  0  0  0  0  0  0  0  0  0  0  0
    1.0771  -49.6683  -17.0679 C   0  0  0  0  0  0  0  0  0  0  0  0
    1.0228  -50.7483  -17.8528 N   0  0  0  0  0  0  0  0  0  0  0  0
   -0.1119  -51.4587  -17.5819 C   0  0  0  0  0  0  0  0  0  0  0  0
    1.6937  -51.0814  -18.5873 H   0  0  0  0  0  0  0  0  0  0  0  0
    1.6951  -51.1707  -23.3054 C   0  0  0  0  0  0  0  0  0  0  0  0
    2.3525  -50.5685  -24.1364 C   0  0  0  0  0  0  0  0  0  0  0  0
    3.1578  -49.8644  -25.1398 C   0  0  0  0  0  0  0  0  0  0  0  0
    4.4180  -50.5922  -25.2622 N   0  0  0  0  0  0  0  0  0  0  0  0
    4.1799  -51.6176  -25.1115 H   0  0  0  0  0  0  0  0  0  0  0  0
    4.7683  -50.5323  -26.2525 H   0  0  0  0  0  0  0  0  0  0  0  0
  6  7  1  0  0  0
  7  1  1  0  0  0
  1  2  1  0  0  0
  2  3  2  0  0  0
  3  8  1  0  0  0
  8 10  1  0  0  0
 10 11  2  0  0  0
 11 12  1  0  0  0
 12 13  2  0  0  0
 13 14  1  0  0  0
 14 15  1  0  0  0
 15 16  2  0  0  0
 16 17  1  0  0  0
 17 18  1  0  0  0
  3  4  1  0  0  0
  4  5  2  0  0  0
  5 20  1  0  0  0
 20 21  3  0  0  0
 21 22  1  0  0  0
 22 23  1  0  0  0
  5  1  1  0  0  0
 18 10  1  0  0  0
 18 14  2  0  0  0
  8  9  1  0  0  0
 17 19  1  0  0  0
 23 24  1  0  0  0
 23 25  1  0  0  0
M  END
> <minimizedAffinity>
-5.33266

> <CNNscore>
0.3266425133

> <CNNaffinity>
5.7941179276

> <CNN_VS>
1.8926051855

> <CNNaffinity_variance>
0.0437979512

$$$$
[H]c1nc(N([H])c2c([H])c(C#CC([H])([H])N([H])[H])n(OC([H])([H])[H])c2[H])c2c(n1)c([H])c([H])n2[H]


 25 27  0  0  0  0  0  0  0  0999 V2000
    2.9994  -51.4415  -20.9901 N   0  0  0  0  0  0  0  0  0  0  0  0
    2.2725  -51.6973  -22.0913 C   0  0  0  0  0  0  0  0  0  0  0  0
    0.9448  -51.7902  -21.7715 C   0  0  0  0  0  0  0  0  0  0  0  0
    0.9131  -51.5713  -20.3864 C   0  0  0  0  0  0  0  0  0  0  0  0
    2.1939  -51.3576  -19.9226 C   0  0  0  0  0  0  0  0  0  0  0  0
    5.1982  -51.3363  -22.0684 C   0  0  0  0  0  0  0  0  0  0  0  0
    4.3545  -51.2880  -20.9513 O   0  0  0  0  0  0  0  0  0  0  0  0
   -0.2154  -52.0390  -22.5358 N   0  0  0  0  0  0  0  0  0  0  0  0
   -1.0180  -51.3364  -22.5166 H   0  0  0  0  0  0  0  0  0  0  0  0
   -0.4077  -53.1793  -23.3507 C   0  0  0  0  0  0  0  0  0  0  0  0
   -0.9432  -54.3231  -22.9057 N   0  0  0  0  0  0  0  0  0  0  0  0
   -1.1136  -55.3844  -23.6955 C   0  0  0  0  0  0  0  0  0  0  0  0
   -0.7407  -55.3073  -24.9663 N   0  0  0  0  0  0  0  0  0  0  0  0
   -0.1956  -54.1989  -25.4937 C   0  0  0  0  0  0  0  0  0  0  0  0
    0.2687  -53.8580  -26.7488 C   0  0  0  0  0  0  0  0  0  0  0  0
    0.7263  -52.5548  -26.6939 C   0  0  0  0  0  0  0  0  0  0  0  0
    0.5456  -52.1176  -25.4443 N   0  0  0  0  0  0  0  0  0  0  0  0
   -0.0179  -53.1049  -24.6872 C   0  0  0  0  0  0  0  0  0  0  0  0
    0.7680  -51.1851  -25.0184 H   0  0  0  0  0  0  0  0  0  0  0  0
    2.6552  -51.0933  -18.5893 C   0  0  0  0  0  0  0  0  0  0  0  0
    3.0348  -50.8849  -17.4500 C   0  0  0  0  0  0  0  0  0  0  0  0
    3.4692  -50.6241  -16.0737 C   0  0  0  0  0  0  0  0  0  0  0  0
    4.2719  -51.7702  -15.6556 N   0  0  0  0  0  0  0  0  0  0  0  0
    4.7818  -52.1042  -16.5270 H   0  0  0  0  0  0  0  0  0  0  0  0
    5.0285  -51.4529  -14.9970 H   0  0  0  0  0  0  0  0  0  0  0  0
  6  7  1  0  0  0
  7  1  1  0  0  0
  1  2  1  0  0  0
  2  3  2  0  0  0
  3  8  1  0  0  0
  8 10  1  0  0  0
 10 11  2  0  0  0
 11 12  1  0  0  0
 12 13  2  0  0  0
 13 14  1  0  0  0
 14 15  1  0  0  0
 15 16  2  0  0  0
 16 17  1  0  0  0
 17 18  1  0  0  0
  3  4  1  0  0  0
  4  5  2  0  0  0
  5 20  1  0  0  0
 20 21  3  0  0  0
 21 22  1  0  0  0
 22 23  1  0  0  0
  5  1  1  0  0  0
 18 10  1  0  0  0
 18 14  2  0  0  0
  8  9  1  0  0  0
 17 19  1  0  0  0
 23 24  1  0  0  0
 23 25  1  0  0  0
M  END
> <minimizedAffinity>
-5.90484

> <CNNscore>
0.3195723295

> <CNNaffinity>
5.9132647514

> <CNN_VS>
1.8897157907

> <CNNaffinity_variance>
0.2382013798

$$$$
[H]c1nc(N([H])c2c([H])c(C#CC([H])([H])N([H])[H])n(OC([H])([H])[H])c2[H])c2c(n1)c([H])c([H])n2[H]


 25 27  0  0  0  0  0  0  0  0999 V2000
    1.0539  -51.6507  -22.0042 N   0  0  0  0  0  0  0  0  0  0  0  0
    1.0713  -52.0385  -23.2911 C   0  0  0  0  0  0  0  0  0  0  0  0
    0.2185  -53.0925  -23.4798 C   0  0  0  0  0  0  0  0  0  0  0  0
   -0.3246  -53.3218  -22.2070 C   0  0  0  0  0  0  0  0  0  0  0  0
    0.2049  -52.4197  -21.3089 C   0  0  0  0  0  0  0  0  0  0  0  0
    1.5189  -49.2678  -21.6670 C   0  0  0  0  0  0  0  0  0  0  0  0
    1.7856  -50.6292  -21.4729 O   0  0  0  0  0  0  0  0  0  0  0  0
   -0.1306  -53.8588  -24.6126 N   0  0  0  0  0  0  0  0  0  0  0  0
   -0.5096  -54.8474  -24.4817 H   0  0  0  0  0  0  0  0  0  0  0  0
   -0.0154  -53.4096  -25.9490 C   0  0  0  0  0  0  0  0  0  0  0  0
   -1.0682  -53.1768  -26.7431 N   0  0  0  0  0  0  0  0  0  0  0  0
   -0.9320  -52.7534  -28.0006 C   0  0  0  0  0  0  0  0  0  0  0  0
    0.2874  -52.5552  -28.4844 N   0  0  0  0  0  0  0  0  0  0  0  0
    1.3966  -52.7641  -27.7564 C   0  0  0  0  0  0  0  0  0  0  0  0
    2.7492  -52.6400  -28.0058 C   0  0  0  0  0  0  0  0  0  0  0  0
    3.4286  -53.0021  -26.8578 C   0  0  0  0  0  0  0  0  0  0  0  0
    2.5171  -53.3359  -25.9396 N   0  0  0  0  0  0  0  0  0  0  0  0
    1.2632  -53.1993  -26.4635 C   0  0  0  0  0  0  0  0  0  0  0  0
    2.6454  -53.6616  -24.9506 H   0  0  0  0  0  0  0  0  0  0  0  0
   -0.0470  -52.2675  -19.9039 C   0  0  0  0  0  0  0  0  0  0  0  0
   -0.2446  -52.1514  -18.7069 C   0  0  0  0  0  0  0  0  0  0  0  0
   -0.4919  -52.0350  -17.2660 C   0  0  0  0  0  0  0  0  0  0  0  0
   -1.3093  -53.1820  -16.8797 N   0  0  0  0  0  0  0  0  0  0  0  0
   -0.9961  -53.9870  -17.5000 H   0  0  0  0  0  0  0  0  0  0  0  0
   -1.0665  -53.4774  -15.8995 H   0  0  0  0  0  0  0  0  0  0  0  0
  6  7  1  0  0  0
  7  1  1  0  0  0
  1  2  1  0  0  0
  2  3  2  0  0  0
  3  8  1  0  0  0
  8 10  1  0  0  0
 10 11  2  0  0  0
 11 12  1  0  0  0
 12 13  2  0  0  0
 13 14  1  0  0  0
 14 15  1  0  0  0
 15 16  2  0  0  0
 16 17  1  0  0  0
 17 18  1  0  0  0
  3  4  1  0  0  0
  4  5  2  0  0  0
  5 20  1  0  0  0
 20 21  3  0  0  0
 21 22  1  0  0  0
 22 23  1  0  0  0
  5  1  1  0  0  0
 18 10  1  0  0  0
 18 14  2  0  0  0
  8  9  1  0  0  0
 17 19  1  0  0  0
 23 24  1  0  0  0
 23 25  1  0  0  0
M  END
> <minimizedAffinity>
-6.76791

> <CNNscore>
0.3054468036

> <CNNaffinity>
5.9916267395

> <CNN_VS>
1.8301231861

> <CNNaffinity_variance>
0.0408156365

$$$$
[H]OC([H])([H])[C@@]1([H])N(C([H])([H])/C([H])=C(\[H])C(=O)N([H])c2c(OC([H])([H])[H])c([H])c3nc([H])nc(N([H])c4c([H])c([H])c(Oc5nc([H])c([H])c([H])c5[H])c([H])c4Cl)c3c2[H])C([H])([H])C([H])([H])C([H])([H])C1([H])[H]


 44 48  0  0  0  0  0  0  0  0999 V2000
   -0.0932  -53.8347  -24.5879 C   0  0  0  0  0  0  0  0  0  0  0  0
   -0.8531  -54.2951  -23.4946 C   0  0  0  0  0  0  0  0  0  0  0  0
   -0.5268  -53.6983  -22.2475 C   0  0  0  0  0  0  0  0  0  0  0  0
   -1.2500  -54.0991  -21.2478 N   0  0  0  0  0  0  0  0  0  0  0  0
   -1.0893  -53.4813  -20.1209 C   0  0  0  0  0  0  0  0  0  0  0  0
   -0.2687  -52.4572  -19.8976 N   0  0  0  0  0  0  0  0  0  0  0  0
    0.4450  -52.1217  -20.9600 C   0  0  0  0  0  0  0  0  0  0  0  0
    0.4800  -52.7090  -22.2516 C   0  0  0  0  0  0  0  0  0  0  0  0
    1.1637  -52.3775  -23.3234 C   0  0  0  0  0  0  0  0  0  0  0  0
    1.0032  -52.8810  -24.5354 C   0  0  0  0  0  0  0  0  0  0  0  0
    1.7419  -52.8517  -25.7963 N   0  0  0  0  0  0  0  0  0  0  0  0
    2.1234  -51.5459  -26.0410 C   0  0  0  0  0  0  0  0  0  0  0  0
    0.9947  -50.9596  -25.0601 O   0  0  0  0  0  0  0  0  0  0  0  0
    1.8908  -53.6478  -26.3499 H   0  0  0  0  0  0  0  0  0  0  0  0
    2.5592  -50.2292  -26.3220 C   0  0  0  0  0  0  0  0  0  0  0  0
    3.1672  -49.6152  -25.3962 C   0  0  0  0  0  0  0  0  0  0  0  0
    3.6838  -48.2988  -25.2127 C   0  0  0  0  0  0  0  0  0  0  0  0
    3.4056  -48.0260  -23.8074 N   0  0  0  0  0  0  0  0  0  0  0  0
    3.7832  -49.0517  -22.9403 C   0  0  0  0  0  0  0  0  0  0  0  0
    4.6400  -48.5302  -21.7893 C   0  0  0  0  0  0  0  0  0  0  0  0
    3.9213  -47.4148  -21.1128 C   0  0  0  0  0  0  0  0  0  0  0  0
    2.7253  -46.8745  -21.8291 C   0  0  0  0  0  0  0  0  0  0  0  0
    2.9313  -46.8148  -23.3680 C   0  0  0  0  0  0  0  0  0  0  0  0
    3.9129  -45.6563  -23.6470 C   0  0  0  0  0  0  0  0  0  0  0  0
    3.2269  -44.5000  -23.2156 O   0  0  0  0  0  0  0  0  0  0  0  0
    2.2806  -44.6020  -23.2506 H   0  0  0  0  0  0  0  0  0  0  0  0
   -0.1487  -55.6562  -26.0137 C   0  0  0  0  0  0  0  0  0  0  0  0
   -0.4580  -54.2128  -25.8613 O   0  0  0  0  0  0  0  0  0  0  0  0
    0.7881  -50.6333  -21.0659 N   0  0  0  0  0  0  0  0  0  0  0  0
    0.3589  -50.0014  -21.7069 H   0  0  0  0  0  0  0  0  0  0  0  0
    1.7422  -50.2891  -20.0179 C   0  0  0  0  0  0  0  0  0  0  0  0
    1.1323  -49.3153  -19.1294 C   0  0  0  0  0  0  0  0  0  0  0  0
    1.7759  -49.0701  -17.8874 C   0  0  0  0  0  0  0  0  0  0  0  0
    2.9640  -49.7704  -17.5693 C   0  0  0  0  0  0  0  0  0  0  0  0
    3.3932  -50.5969  -18.4176 C   0  0  0  0  0  0  0  0  0  0  0  0
    2.8101  -50.9021  -19.6938 C   0  0  0  0  0  0  0  0  0  0  0  0
    3.6438  -51.9536  -20.7965 Cl  0  0  0  0  0  0  0  0  0  0  0  0
    3.4032  -49.3954  -16.2773 O   0  0  0  0  0  0  0  0  0  0  0  0
    2.9260  -50.3872  -15.3293 C   0  0  0  0  0  0  0  0  0  0  0  0
    3.7495  -51.2644  -14.7488 C   0  0  0  0  0  0  0  0  0  0  0  0
    3.3296  -52.2652  -13.8746 C   0  0  0  0  0  0  0  0  0  0  0  0
    1.9589  -52.3188  -13.5946 C   0  0  0  0  0  0  0  0  0  0  0  0
    1.1187  -51.3311  -14.2165 C   0  0  0  0  0  0  0  0  0  0  0  0
    1.6014  -50.4404  -15.0262 N   0  0  0  0  0  0  0  0  0  0  0  0
 27 28  1  0  0  0
 28  1  1  0  0  0
  1  2  2  0  0  0
  2  3  1  0  0  0
  3  4  2  0  0  0
  4  5  1  0  0  0
  5  6  2  0  0  0
  6  7  1  0  0  0
  7 29  1  0  0  0
 29 31  1  0  0  0
 31 32  2  0  0  0
 32 33  1  0  0  0
 33 34  2  0  0  0
 34 38  1  0  0  0
 38 39  1  0  0  0
 39 40  2  0  0  0
 40 41  1  0  0  0
 41 42  2  0  0  0
 42 43  1  0  0  0
 43 44  2  0  0  0
 34 35  1  0  0  0
 35 36  2  0  0  0
 36 37  1  0  0  0
  7  8  2  0  0  0
  8  9  1  0  0  0
  9 10  2  0  0  0
 10 11  1  0  0  0
 11 12  1  0  0  0
 12 13  2  0  0  0
 12 15  1  0  0  0
 15 16  2  0  0  0
 16 17  1  0  0  0
 17 18  1  0  0  0
 18 19  1  0  0  0
 19 20  1  0  0  0
 20 21  1  0  0  0
 21 22  1  0  0  0
 22 23  1  0  0  0
 23 24  1  0  0  0
 24 25  1  0  0  0
 10  1  1  0  0  0
 23 18  1  0  0  0
  8  3  1  0  0  0
 36 31  1  0  0  0
 44 39  1  0  0  0
 29 30  1  0  0  0
 11 14  1  0  0  0
 25 26  1  0  0  0
M  END
> <minimizedAffinity>
-7.67212

> <CNNscore>
0.3930282593

> <CNNaffinity>
7.6398177147

> <CNN_VS>
3.0026643276

> <CNNaffinity_variance>
0.1451151818

$$$$
[H]OC([H])([H])[C@@]1([H])N(C([H])([H])/C([H])=C(\[H])C(=O)N([H])c2c(OC([H])([H])[H])c([H])c3nc([H])nc(N([H])c4c([H])c([H])c(Oc5nc([H])c([H])c([H])c5[H])c([H])c4Cl)c3c2[H])C([H])([H])C([H])([H])C([H])([H])C1([H])[H]


 44 48  0  0  0  0  0  0  0  0999 V2000
    0.9330  -53.5813  -26.9417 C   0  0  0  0  0  0  0  0  0  0  0  0
   -0.0331  -54.4623  -26.4173 C   0  0  0  0  0  0  0  0  0  0  0  0
   -0.1878  -54.4068  -25.0063 C   0  0  0  0  0  0  0  0  0  0  0  0
   -1.1012  -55.1947  -24.5287 N   0  0  0  0  0  0  0  0  0  0  0  0
   -1.3798  -55.0764  -23.2694 C   0  0  0  0  0  0  0  0  0  0  0  0
   -0.8341  -54.2054  -22.4235 N   0  0  0  0  0  0  0  0  0  0  0  0
    0.0991  -53.4524  -22.9828 C   0  0  0  0  0  0  0  0  0  0  0  0
    0.6059  -53.4713  -24.3083 C   0  0  0  0  0  0  0  0  0  0  0  0
    1.5143  -52.7190  -24.8872 C   0  0  0  0  0  0  0  0  0  0  0  0
    1.8003  -52.6986  -26.1780 C   0  0  0  0  0  0  0  0  0  0  0  0
    2.8638  -52.1456  -27.0143 N   0  0  0  0  0  0  0  0  0  0  0  0
    3.0379  -50.8190  -26.6675 C   0  0  0  0  0  0  0  0  0  0  0  0
    1.5742  -50.7266  -26.0127 O   0  0  0  0  0  0  0  0  0  0  0  0
    3.3255  -52.6635  -27.7078 H   0  0  0  0  0  0  0  0  0  0  0  0
    3.2714  -49.4647  -26.3298 C   0  0  0  0  0  0  0  0  0  0  0  0
    4.3090  -49.2130  -25.6487 C   0  0  0  0  0  0  0  0  0  0  0  0
    4.8704  -48.0548  -25.0347 C   0  0  0  0  0  0  0  0  0  0  0  0
    3.7547  -47.1159  -25.0147 N   0  0  0  0  0  0  0  0  0  0  0  0
    3.0803  -47.0554  -23.7948 C   0  0  0  0  0  0  0  0  0  0  0  0
    2.9353  -45.6179  -23.3015 C   0  0  0  0  0  0  0  0  0  0  0  0
    2.3031  -44.7966  -24.3712 C   0  0  0  0  0  0  0  0  0  0  0  0
    2.2158  -45.4324  -25.7216 C   0  0  0  0  0  0  0  0  0  0  0  0
    3.4752  -46.2756  -26.0638 C   0  0  0  0  0  0  0  0  0  0  0  0
    4.6205  -45.2803  -26.3486 C   0  0  0  0  0  0  0  0  0  0  0  0
    5.0571  -45.6069  -27.6511 O   0  0  0  0  0  0  0  0  0  0  0  0
    4.8854  -46.5161  -27.8770 H   0  0  0  0  0  0  0  0  0  0  0  0
   -0.2346  -52.7999  -28.7802 C   0  0  0  0  0  0  0  0  0  0  0  0
    1.0247  -53.4270  -28.3075 O   0  0  0  0  0  0  0  0  0  0  0  0
    0.2187  -52.0375  -22.4100 N   0  0  0  0  0  0  0  0  0  0  0  0
   -0.2819  -51.2470  -22.7547 H   0  0  0  0  0  0  0  0  0  0  0  0
    1.0810  -52.0714  -21.2342 C   0  0  0  0  0  0  0  0  0  0  0  0
    2.4254  -51.6867  -21.6269 C   0  0  0  0  0  0  0  0  0  0  0  0
    3.3446  -51.3727  -20.5908 C   0  0  0  0  0  0  0  0  0  0  0  0
    2.9235  -51.4455  -19.2414 C   0  0  0  0  0  0  0  0  0  0  0  0
    1.7296  -51.7842  -19.0255 C   0  0  0  0  0  0  0  0  0  0  0  0
    0.7389  -52.1212  -20.0087 C   0  0  0  0  0  0  0  0  0  0  0  0
   -0.8098  -52.7250  -19.5047 Cl  0  0  0  0  0  0  0  0  0  0  0  0
    3.9865  -51.0567  -18.3921 O   0  0  0  0  0  0  0  0  0  0  0  0
    3.6278  -49.7980  -17.7619 C   0  0  0  0  0  0  0  0  0  0  0  0
    3.6986  -48.6348  -18.4148 C   0  0  0  0  0  0  0  0  0  0  0  0
    3.4148  -47.3991  -17.8363 C   0  0  0  0  0  0  0  0  0  0  0  0
    3.0188  -47.4115  -16.4935 C   0  0  0  0  0  0  0  0  0  0  0  0
    2.9242  -48.6915  -15.8447 C   0  0  0  0  0  0  0  0  0  0  0  0
    3.2182  -49.7916  -16.4652 N   0  0  0  0  0  0  0  0  0  0  0  0
 27 28  1  0  0  0
 28  1  1  0  0  0
  1  2  2  0  0  0
  2  3  1  0  0  0
  3  4  2  0  0  0
  4  5  1  0  0  0
  5  6  2  0  0  0
  6  7  1  0  0  0
  7 29  1  0  0  0
 29 31  1  0  0  0
 31 32  2  0  0  0
 32 33  1  0  0  0
 33 34  2  0  0  0
 34 38  1  0  0  0
 38 39  1  0  0  0
 39 40  2  0  0  0
 40 41  1  0  0  0
 41 42  2  0  0  0
 42 43  1  0  0  0
 43 44  2  0  0  0
 34 35  1  0  0  0
 35 36  2  0  0  0
 36 37  1  0  0  0
  7  8  2  0  0  0
  8  9  1  0  0  0
  9 10  2  0  0  0
 10 11  1  0  0  0
 11 12  1  0  0  0
 12 13  2  0  0  0
 12 15  1  0  0  0
 15 16  2  0  0  0
 16 17  1  0  0  0
 17 18  1  0  0  0
 18 19  1  0  0  0
 19 20  1  0  0  0
 20 21  1  0  0  0
 21 22  1  0  0  0
 22 23  1  0  0  0
 23 24  1  0  0  0
 24 25  1  0  0  0
 10  1  1  0  0  0
 23 18  1  0  0  0
  8  3  1  0  0  0
 36 31  1  0  0  0
 44 39  1  0  0  0
 29 30  1  0  0  0
 11 14  1  0  0  0
 25 26  1  0  0  0
M  END
> <minimizedAffinity>
-7.86064

> <CNNscore>
0.3674911261

> <CNNaffinity>
7.6204161644

> <CNN_VS>
2.8004353046

> <CNNaffinity_variance>
0.1242605224

$$$$
[H]OC([H])([H])[C@@]1([H])N(C([H])([H])/C([H])=C(\[H])C(=O)N([H])c2c(OC([H])([H])[H])c([H])c3nc([H])nc(N([H])c4c([H])c([H])c(Oc5nc([H])c([H])c([H])c5[H])c([H])c4Cl)c3c2[H])C([H])([H])C([H])([H])C([H])([H])C1([H])[H]


 44 48  0  0  0  0  0  0  0  0999 V2000
    1.0036  -53.3386  -27.1099 C   0  0  0  0  0  0  0  0  0  0  0  0
    0.0870  -54.2998  -26.6405 C   0  0  0  0  0  0  0  0  0  0  0  0
   -0.0809  -54.3255  -25.2301 C   0  0  0  0  0  0  0  0  0  0  0  0
   -0.9500  -55.1885  -24.8023 N   0  0  0  0  0  0  0  0  0  0  0  0
   -1.2441  -55.1511  -23.5416 C   0  0  0  0  0  0  0  0  0  0  0  0
   -0.7563  -54.2942  -22.6472 N   0  0  0  0  0  0  0  0  0  0  0  0
    0.1352  -53.4608  -23.1582 C   0  0  0  0  0  0  0  0  0  0  0  0
    0.6518  -53.3825  -24.4777 C   0  0  0  0  0  0  0  0  0  0  0  0
    1.5187  -52.5502  -25.0086 C   0  0  0  0  0  0  0  0  0  0  0  0
    1.8123  -52.4472  -26.2938 C   0  0  0  0  0  0  0  0  0  0  0  0
    2.8476  -51.7915  -27.0902 N   0  0  0  0  0  0  0  0  0  0  0  0
    3.0771  -50.5398  -26.5507 C   0  0  0  0  0  0  0  0  0  0  0  0
    1.6516  -50.5216  -25.8107 O   0  0  0  0  0  0  0  0  0  0  0  0
    3.2586  -52.2032  -27.8801 H   0  0  0  0  0  0  0  0  0  0  0  0
    3.3663  -49.2606  -26.0191 C   0  0  0  0  0  0  0  0  0  0  0  0
    4.4831  -48.7492  -26.3273 C   0  0  0  0  0  0  0  0  0  0  0  0
    5.2001  -47.5706  -25.9665 C   0  0  0  0  0  0  0  0  0  0  0  0
    4.7399  -46.5900  -26.9430 N   0  0  0  0  0  0  0  0  0  0  0  0
    4.7466  -47.0488  -28.2605 C   0  0  0  0  0  0  0  0  0  0  0  0
    3.4038  -46.8113  -28.9471 C   0  0  0  0  0  0  0  0  0  0  0  0
    3.0392  -45.3727  -28.8207 C   0  0  0  0  0  0  0  0  0  0  0  0
    3.8580  -44.5699  -27.8613 C   0  0  0  0  0  0  0  0  0  0  0  0
    4.2263  -45.3694  -26.5809 C   0  0  0  0  0  0  0  0  0  0  0  0
    2.9374  -45.4932  -25.7402 C   0  0  0  0  0  0  0  0  0  0  0  0
    2.7859  -44.2259  -25.1363 O   0  0  0  0  0  0  0  0  0  0  0  0
    3.6153  -43.7695  -25.0314 H   0  0  0  0  0  0  0  0  0  0  0  0
   -0.2711  -52.8381  -28.9749 C   0  0  0  0  0  0  0  0  0  0  0  0
    1.0959  -53.1096  -28.4651 O   0  0  0  0  0  0  0  0  0  0  0  0
    0.1679  -52.0724  -22.5133 N   0  0  0  0  0  0  0  0  0  0  0  0
   -0.4290  -51.3173  -22.7736 H   0  0  0  0  0  0  0  0  0  0  0  0
    1.1186  -52.0836  -21.4073 C   0  0  0  0  0  0  0  0  0  0  0  0
    2.3938  -51.5733  -21.8794 C   0  0  0  0  0  0  0  0  0  0  0  0
    3.3627  -51.2276  -20.9003 C   0  0  0  0  0  0  0  0  0  0  0  0
    3.0544  -51.3907  -19.5285 C   0  0  0  0  0  0  0  0  0  0  0  0
    1.9113  -51.8354  -19.2414 C   0  0  0  0  0  0  0  0  0  0  0  0
    0.8773  -52.2121  -20.1637 C   0  0  0  0  0  0  0  0  0  0  0  0
   -0.5750  -52.9620  -19.5760 Cl  0  0  0  0  0  0  0  0  0  0  0  0
    4.1458  -50.9509  -18.7425 O   0  0  0  0  0  0  0  0  0  0  0  0
    3.6360  -50.5405  -17.4457 C   0  0  0  0  0  0  0  0  0  0  0  0
    3.0314  -49.3632  -17.2638 C   0  0  0  0  0  0  0  0  0  0  0  0
    2.5736  -48.9060  -16.0294 C   0  0  0  0  0  0  0  0  0  0  0  0
    2.7580  -49.7610  -14.9363 C   0  0  0  0  0  0  0  0  0  0  0  0
    3.3821  -51.0316  -15.1896 C   0  0  0  0  0  0  0  0  0  0  0  0
    3.7844  -51.3670  -16.3761 N   0  0  0  0  0  0  0  0  0  0  0  0
 27 28  1  0  0  0
 28  1  1  0  0  0
  1  2  2  0  0  0
  2  3  1  0  0  0
  3  4  2  0  0  0
  4  5  1  0  0  0
  5  6  2  0  0  0
  6  7  1  0  0  0
  7 29  1  0  0  0
 29 31  1  0  0  0
 31 32  2  0  0  0
 32 33  1  0  0  0
 33 34  2  0  0  0
 34 38  1  0  0  0
 38 39  1  0  0  0
 39 40  2  0  0  0
 40 41  1  0  0  0
 41 42  2  0  0  0
 42 43  1  0  0  0
 43 44  2  0  0  0
 34 35  1  0  0  0
 35 36  2  0  0  0
 36 37  1  0  0  0
  7  8  2  0  0  0
  8  9  1  0  0  0
  9 10  2  0  0  0
 10 11  1  0  0  0
 11 12  1  0  0  0
 12 13  2  0  0  0
 12 15  1  0  0  0
 15 16  2  0  0  0
 16 17  1  0  0  0
 17 18  1  0  0  0
 18 19  1  0  0  0
 19 20  1  0  0  0
 20 21  1  0  0  0
 21 22  1  0  0  0
 22 23  1  0  0  0
 23 24  1  0  0  0
 24 25  1  0  0  0
 10  1  1  0  0  0
 23 18  1  0  0  0
  8  3  1  0  0  0
 36 31  1  0  0  0
 44 39  1  0  0  0
 29 30  1  0  0  0
 11 14  1  0  0  0
 25 26  1  0  0  0
M  END
> <minimizedAffinity>
-8.47897

> <CNNscore>
0.3571542203

> <CNNaffinity>
7.4978957176

> <CNN_VS>
2.6779050827

> <CNNaffinity_variance>
0.1722179949

$$$$
[H]OC([H])([H])[C@@]1([H])N(C([H])([H])/C([H])=C(\[H])C(=O)N([H])c2c(OC([H])([H])[H])c([H])c3nc([H])nc(N([H])c4c([H])c([H])c(Oc5nc([H])c([H])c([H])c5[H])c([H])c4Cl)c3c2[H])C([H])([H])C([H])([H])C([H])([H])C1([H])[H]


 44 48  0  0  0  0  0  0  0  0999 V2000
    0.8790  -53.6190  -26.9281 C   0  0  0  0  0  0  0  0  0  0  0  0
   -0.0635  -54.5297  -26.4113 C   0  0  0  0  0  0  0  0  0  0  0  0
   -0.2246  -54.4855  -25.0006 C   0  0  0  0  0  0  0  0  0  0  0  0
   -1.1168  -55.3014  -24.5301 N   0  0  0  0  0  0  0  0  0  0  0  0
   -1.4031  -55.1972  -23.2713 C   0  0  0  0  0  0  0  0  0  0  0  0
   -0.8852  -54.3152  -22.4192 N   0  0  0  0  0  0  0  0  0  0  0  0
    0.0281  -53.5333  -22.9715 C   0  0  0  0  0  0  0  0  0  0  0  0
    0.5398  -53.5313  -24.2953 C   0  0  0  0  0  0  0  0  0  0  0  0
    1.4284  -52.7507  -24.8673 C   0  0  0  0  0  0  0  0  0  0  0  0
    1.7181  -52.7158  -26.1570 C   0  0  0  0  0  0  0  0  0  0  0  0
    2.7684  -52.1288  -26.9868 N   0  0  0  0  0  0  0  0  0  0  0  0
    3.0233  -50.8532  -26.5194 C   0  0  0  0  0  0  0  0  0  0  0  0
    1.5973  -50.7626  -25.7859 O   0  0  0  0  0  0  0  0  0  0  0  0
    3.1719  -52.5937  -27.7505 H   0  0  0  0  0  0  0  0  0  0  0  0
    3.3384  -49.5518  -26.0614 C   0  0  0  0  0  0  0  0  0  0  0  0
    4.0480  -49.4667  -25.0159 C   0  0  0  0  0  0  0  0  0  0  0  0
    4.5146  -48.4076  -24.1828 C   0  0  0  0  0  0  0  0  0  0  0  0
    5.6688  -48.9959  -23.5132 N   0  0  0  0  0  0  0  0  0  0  0  0
    6.8113  -49.0781  -24.3097 C   0  0  0  0  0  0  0  0  0  0  0  0
    8.0297  -48.4790  -23.6115 C   0  0  0  0  0  0  0  0  0  0  0  0
    8.1895  -49.1182  -22.2757 C   0  0  0  0  0  0  0  0  0  0  0  0
    7.0370  -49.9440  -21.8010 C   0  0  0  0  0  0  0  0  0  0  0  0
    5.6645  -49.3216  -22.1795 C   0  0  0  0  0  0  0  0  0  0  0  0
    5.4606  -48.0918  -21.2687 C   0  0  0  0  0  0  0  0  0  0  0  0
    5.4273  -48.6222  -19.9605 O   0  0  0  0  0  0  0  0  0  0  0  0
    5.1354  -49.5287  -19.9409 H   0  0  0  0  0  0  0  0  0  0  0  0
   -0.3036  -52.8612  -28.7668 C   0  0  0  0  0  0  0  0  0  0  0  0
    0.9710  -53.4554  -28.2927 O   0  0  0  0  0  0  0  0  0  0  0  0
    0.1055  -52.1184  -22.3915 N   0  0  0  0  0  0  0  0  0  0  0  0
   -0.4560  -51.3534  -22.6980 H   0  0  0  0  0  0  0  0  0  0  0  0
    1.0359  -52.1147  -21.2683 C   0  0  0  0  0  0  0  0  0  0  0  0
    2.3316  -51.6521  -21.7338 C   0  0  0  0  0  0  0  0  0  0  0  0
    3.2914  -51.2967  -20.7491 C   0  0  0  0  0  0  0  0  0  0  0  0
    2.9549  -51.4050  -19.3786 C   0  0  0  0  0  0  0  0  0  0  0  0
    1.7962  -51.8116  -19.0977 C   0  0  0  0  0  0  0  0  0  0  0  0
    0.7696  -52.1945  -20.0258 C   0  0  0  0  0  0  0  0  0  0  0  0
   -0.7112  -52.8881  -19.4400 Cl  0  0  0  0  0  0  0  0  0  0  0  0
    4.0429  -50.9651  -18.5878 O   0  0  0  0  0  0  0  0  0  0  0  0
    3.5135  -50.4136  -17.3527 C   0  0  0  0  0  0  0  0  0  0  0  0
    3.6388  -51.0482  -16.1839 C   0  0  0  0  0  0  0  0  0  0  0  0
    3.1028  -50.5832  -14.9845 C   0  0  0  0  0  0  0  0  0  0  0  0
    2.4109  -49.3672  -15.0365 C   0  0  0  0  0  0  0  0  0  0  0  0
    2.3336  -48.7054  -16.3109 C   0  0  0  0  0  0  0  0  0  0  0  0
    2.8586  -49.2221  -17.3783 N   0  0  0  0  0  0  0  0  0  0  0  0
 27 28  1  0  0  0
 28  1  1  0  0  0
  1  2  2  0  0  0
  2  3  1  0  0  0
  3  4  2  0  0  0
  4  5  1  0  0  0
  5  6  2  0  0  0
  6  7  1  0  0  0
  7 29  1  0  0  0
 29 31  1  0  0  0
 31 32  2  0  0  0
 32 33  1  0  0  0
 33 34  2  0  0  0
 34 38  1  0  0  0
 38 39  1  0  0  0
 39 40  2  0  0  0
 40 41  1  0  0  0
 41 42  2  0  0  0
 42 43  1  0  0  0
 43 44  2  0  0  0
 34 35  1  0  0  0
 35 36  2  0  0  0
 36 37  1  0  0  0
  7  8  2  0  0  0
  8  9  1  0  0  0
  9 10  2  0  0  0
 10 11  1  0  0  0
 11 12  1  0  0  0
 12 13  2  0  0  0
 12 15  1  0  0  0
 15 16  2  0  0  0
 16 17  1  0  0  0
 17 18  1  0  0  0
 18 19  1  0  0  0
 19 20  1  0  0  0
 20 21  1  0  0  0
 21 22  1  0  0  0
 22 23  1  0  0  0
 23 24  1  0  0  0
 24 25  1  0  0  0
 10  1  1  0  0  0
 23 18  1  0  0  0
  8  3  1  0  0  0
 36 31  1  0  0  0
 44 39  1  0  0  0
 29 30  1  0  0  0
 11 14  1  0  0  0
 25 26  1  0  0  0
M  END
> <minimizedAffinity>
-7.87047

> <CNNscore>
0.3039005995

> <CNNaffinity>
7.5524282455

> <CNN_VS>
2.2951874733

> <CNNaffinity_variance>
0.1045741215

$$$$
[H]OC([H])([H])[C@@]1([H])N(C([H])([H])/C([H])=C(\[H])C(=O)N([H])c2c(OC([H])([H])[H])c([H])c3nc([H])nc(N([H])c4c([H])c([H])c(Oc5nc([H])c([H])c([H])c5[H])c([H])c4Cl)c3c2[H])C([H])([H])C([H])([H])C([H])([H])C1([H])[H]


 44 48  0  0  0  0  0  0  0  0999 V2000
    1.0399  -53.6127  -26.6976 C   0  0  0  0  0  0  0  0  0  0  0  0
    0.0428  -54.4561  -26.1694 C   0  0  0  0  0  0  0  0  0  0  0  0
   -0.1561  -54.3398  -24.7677 C   0  0  0  0  0  0  0  0  0  0  0  0
   -1.0975  -55.0930  -24.2884 N   0  0  0  0  0  0  0  0  0  0  0  0
   -1.4143  -54.9184  -23.0448 C   0  0  0  0  0  0  0  0  0  0  0  0
   -0.8812  -54.0217  -22.2178 N   0  0  0  0  0  0  0  0  0  0  0  0
    0.0820  -53.3072  -22.7766 C   0  0  0  0  0  0  0  0  0  0  0  0
    0.6306  -53.3888  -24.0829 C   0  0  0  0  0  0  0  0  0  0  0  0
    1.5696  -52.6753  -24.6621 C   0  0  0  0  0  0  0  0  0  0  0  0
    1.8970  -52.7128  -25.9426 C   0  0  0  0  0  0  0  0  0  0  0  0
    2.9960  -52.2115  -26.7656 N   0  0  0  0  0  0  0  0  0  0  0  0
    3.0500  -50.8380  -26.6208 C   0  0  0  0  0  0  0  0  0  0  0  0
    1.5285  -50.7627  -26.1119 O   0  0  0  0  0  0  0  0  0  0  0  0
    3.5534  -52.7910  -27.3276 H   0  0  0  0  0  0  0  0  0  0  0  0
    3.1621  -49.4339  -26.4845 C   0  0  0  0  0  0  0  0  0  0  0  0
    3.8946  -48.8317  -27.3240 C   0  0  0  0  0  0  0  0  0  0  0  0
    4.3475  -47.4920  -27.5072 C   0  0  0  0  0  0  0  0  0  0  0  0
    3.8912  -47.1687  -28.8541 N   0  0  0  0  0  0  0  0  0  0  0  0
    2.8027  -46.2970  -28.8952 C   0  0  0  0  0  0  0  0  0  0  0  0
    3.0604  -45.1167  -29.8287 C   0  0  0  0  0  0  0  0  0  0  0  0
    3.4595  -45.6323  -31.1678 C   0  0  0  0  0  0  0  0  0  0  0  0
    3.7905  -47.0886  -31.2386 C   0  0  0  0  0  0  0  0  0  0  0  0
    4.5556  -47.5857  -29.9808 C   0  0  0  0  0  0  0  0  0  0  0  0
    5.9880  -47.0166  -30.0702 C   0  0  0  0  0  0  0  0  0  0  0  0
    6.5281  -47.5999  -31.2372 O   0  0  0  0  0  0  0  0  0  0  0  0
    6.1223  -48.4350  -31.4499 H   0  0  0  0  0  0  0  0  0  0  0  0
   -0.0463  -52.8716  -28.6014 C   0  0  0  0  0  0  0  0  0  0  0  0
    1.1779  -53.5165  -28.0648 O   0  0  0  0  0  0  0  0  0  0  0  0
    0.2071  -51.8718  -22.2585 N   0  0  0  0  0  0  0  0  0  0  0  0
   -0.3363  -51.1046  -22.5907 H   0  0  0  0  0  0  0  0  0  0  0  0
    1.1517  -51.8476  -21.1474 C   0  0  0  0  0  0  0  0  0  0  0  0
    2.4223  -51.3289  -21.6229 C   0  0  0  0  0  0  0  0  0  0  0  0
    3.3808  -50.9501  -20.6457 C   0  0  0  0  0  0  0  0  0  0  0  0
    3.0671  -51.0901  -19.2726 C   0  0  0  0  0  0  0  0  0  0  0  0
    1.9288  -51.5450  -18.9827 C   0  0  0  0  0  0  0  0  0  0  0  0
    0.9053  -51.9546  -19.9028 C   0  0  0  0  0  0  0  0  0  0  0  0
   -0.5397  -52.7129  -19.3079 Cl  0  0  0  0  0  0  0  0  0  0  0  0
    4.1479  -50.6194  -18.4898 O   0  0  0  0  0  0  0  0  0  0  0  0
    3.7077  -50.5404  -17.1077 C   0  0  0  0  0  0  0  0  0  0  0  0
    3.0635  -49.4718  -16.6307 C   0  0  0  0  0  0  0  0  0  0  0  0
    2.6688  -49.3302  -15.3016 C   0  0  0  0  0  0  0  0  0  0  0  0
    2.9649  -50.3953  -14.4427 C   0  0  0  0  0  0  0  0  0  0  0  0
    3.6281  -51.5376  -15.0114 C   0  0  0  0  0  0  0  0  0  0  0  0
    3.9650  -51.5747  -16.2632 N   0  0  0  0  0  0  0  0  0  0  0  0
 27 28  1  0  0  0
 28  1  1  0  0  0
  1  2  2  0  0  0
  2  3  1  0  0  0
  3  4  2  0  0  0
  4  5  1  0  0  0
  5  6  2  0  0  0
  6  7  1  0  0  0
  7 29  1  0  0  0
 29 31  1  0  0  0
 31 32  2  0  0  0
 32 33  1  0  0  0
 33 34  2  0  0  0
 34 38  1  0  0  0
 38 39  1  0  0  0
 39 40  2  0  0  0
 40 41  1  0  0  0
 41 42  2  0  0  0
 42 43  1  0  0  0
 43 44  2  0  0  0
 34 35  1  0  0  0
 35 36  2  0  0  0
 36 37  1  0  0  0
  7  8  2  0  0  0
  8  9  1  0  0  0
  9 10  2  0  0  0
 10 11  1  0  0  0
 11 12  1  0  0  0
 12 13  2  0  0  0
 12 15  1  0  0  0
 15 16  2  0  0  0
 16 17  1  0  0  0
 17 18  1  0  0  0
 18 19  1  0  0  0
 19 20  1  0  0  0
 20 21  1  0  0  0
 21 22  1  0  0  0
 22 23  1  0  0  0
 23 24  1  0  0  0
 24 25  1  0  0  0
 10  1  1  0  0  0
 23 18  1  0  0  0
  8  3  1  0  0  0
 36 31  1  0  0  0
 44 39  1  0  0  0
 29 30  1  0  0  0
 11 14  1  0  0  0
 25 26  1  0  0  0
M  END
> <minimizedAffinity>
-8.27518

> <CNNscore>
0.2949241996

> <CNNaffinity>
7.4246544838

> <CNN_VS>
2.1897103786

> <CNNaffinity_variance>
0.0624064729

$$$$
[H]OC([H])([H])[C@@]1([H])N(C([H])([H])/C([H])=C(\[H])C(=O)N([H])c2c(OC([H])([H])[H])c([H])c3nc([H])nc(N([H])c4c([H])c([H])c(Oc5nc([H])c([H])c([H])c5[H])c([H])c4Cl)c3c2[H])C([H])([H])C([H])([H])C([H])([H])C1([H])[H]


 44 48  0  0  0  0  0  0  0  0999 V2000
    0.1045  -53.9424  -24.8349 C   0  0  0  0  0  0  0  0  0  0  0  0
   -0.7545  -54.2121  -23.7514 C   0  0  0  0  0  0  0  0  0  0  0  0
   -0.4207  -53.5422  -22.5441 C   0  0  0  0  0  0  0  0  0  0  0  0
   -1.2321  -53.7657  -21.5567 N   0  0  0  0  0  0  0  0  0  0  0  0
   -1.0544  -53.0678  -20.4803 C   0  0  0  0  0  0  0  0  0  0  0  0
   -0.1322  -52.1250  -20.2997 N   0  0  0  0  0  0  0  0  0  0  0  0
    0.6651  -51.9709  -21.3442 C   0  0  0  0  0  0  0  0  0  0  0  0
    0.6929  -52.6755  -22.5758 C   0  0  0  0  0  0  0  0  0  0  0  0
    1.4605  -52.5229  -23.6312 C   0  0  0  0  0  0  0  0  0  0  0  0
    1.3004  -53.1157  -24.8022 C   0  0  0  0  0  0  0  0  0  0  0  0
    2.0963  -53.2856  -26.0162 N   0  0  0  0  0  0  0  0  0  0  0  0
    2.4741  -52.0329  -26.4618 C   0  0  0  0  0  0  0  0  0  0  0  0
    1.2945  -51.3110  -25.6449 O   0  0  0  0  0  0  0  0  0  0  0  0
    2.2797  -54.1608  -26.4198 H   0  0  0  0  0  0  0  0  0  0  0  0
    2.9076  -50.7745  -26.9426 C   0  0  0  0  0  0  0  0  0  0  0  0
    3.1562  -49.8835  -26.0777 C   0  0  0  0  0  0  0  0  0  0  0  0
    3.5182  -48.5045  -26.1083 C   0  0  0  0  0  0  0  0  0  0  0  0
    4.9748  -48.5423  -26.0476 N   0  0  0  0  0  0  0  0  0  0  0  0
    5.6076  -48.0251  -27.1783 C   0  0  0  0  0  0  0  0  0  0  0  0
    6.6636  -46.9866  -26.8079 C   0  0  0  0  0  0  0  0  0  0  0  0
    7.6059  -47.5805  -25.8191 C   0  0  0  0  0  0  0  0  0  0  0  0
    7.1853  -48.8795  -25.2098 C   0  0  0  0  0  0  0  0  0  0  0  0
    5.6591  -48.9350  -24.9241 C   0  0  0  0  0  0  0  0  0  0  0  0
    5.3930  -48.0134  -23.7144 C   0  0  0  0  0  0  0  0  0  0  0  0
    5.0024  -48.8915  -22.6800 O   0  0  0  0  0  0  0  0  0  0  0  0
    4.6133  -49.6956  -23.0105 H   0  0  0  0  0  0  0  0  0  0  0  0
   -0.0989  -55.8712  -26.0966 C   0  0  0  0  0  0  0  0  0  0  0  0
   -0.2409  -54.3939  -26.0896 O   0  0  0  0  0  0  0  0  0  0  0  0
    1.1829  -50.5460  -21.5589 N   0  0  0  0  0  0  0  0  0  0  0  0
    0.8935  -49.9485  -22.3030 H   0  0  0  0  0  0  0  0  0  0  0  0
    2.0612  -50.1870  -20.4513 C   0  0  0  0  0  0  0  0  0  0  0  0
    1.3729  -49.2363  -19.5957 C   0  0  0  0  0  0  0  0  0  0  0  0
    1.9319  -48.9857  -18.3144 C   0  0  0  0  0  0  0  0  0  0  0  0
    3.1155  -49.6587  -17.9280 C   0  0  0  0  0  0  0  0  0  0  0  0
    3.6173  -50.4669  -18.7537 C   0  0  0  0  0  0  0  0  0  0  0  0
    3.1223  -50.7758  -20.0657 C   0  0  0  0  0  0  0  0  0  0  0  0
    4.0493  -51.7967  -21.1219 Cl  0  0  0  0  0  0  0  0  0  0  0  0
    3.4641  -49.2839  -16.6087 O   0  0  0  0  0  0  0  0  0  0  0  0
    2.9772  -50.3084  -15.7013 C   0  0  0  0  0  0  0  0  0  0  0  0
    1.6947  -50.3762  -15.3339 C   0  0  0  0  0  0  0  0  0  0  0  0
    1.1931  -51.3080  -14.4271 C   0  0  0  0  0  0  0  0  0  0  0  0
    2.1096  -52.2251  -13.8989 C   0  0  0  0  0  0  0  0  0  0  0  0
    3.4714  -52.1334  -14.3520 C   0  0  0  0  0  0  0  0  0  0  0  0
    3.8473  -51.2229  -15.1956 N   0  0  0  0  0  0  0  0  0  0  0  0
 27 28  1  0  0  0
 28  1  1  0  0  0
  1  2  2  0  0  0
  2  3  1  0  0  0
  3  4  2  0  0  0
  4  5  1  0  0  0
  5  6  2  0  0  0
  6  7  1  0  0  0
  7 29  1  0  0  0
 29 31  1  0  0  0
 31 32  2  0  0  0
 32 33  1  0  0  0
 33 34  2  0  0  0
 34 38  1  0  0  0
 38 39  1  0  0  0
 39 40  2  0  0  0
 40 41  1  0  0  0
 41 42  2  0  0  0
 42 43  1  0  0  0
 43 44  2  0  0  0
 34 35  1  0  0  0
 35 36  2  0  0  0
 36 37  1  0  0  0
  7  8  2  0  0  0
  8  9  1  0  0  0
  9 10  2  0  0  0
 10 11  1  0  0  0
 11 12  1  0  0  0
 12 13  2  0  0  0
 12 15  1  0  0  0
 15 16  2  0  0  0
 16 17  1  0  0  0
 17 18  1  0  0  0
 18 19  1  0  0  0
 19 20  1  0  0  0
 20 21  1  0  0  0
 21 22  1  0  0  0
 22 23  1  0  0  0
 23 24  1  0  0  0
 24 25  1  0  0  0
 10  1  1  0  0  0
 23 18  1  0  0  0
  8  3  1  0  0  0
 36 31  1  0  0  0
 44 39  1  0  0  0
 29 30  1  0  0  0
 11 14  1  0  0  0
 25 26  1  0  0  0
M  END
> <minimizedAffinity>
-7.28145

> <CNNscore>
0.2922136188

> <CNNaffinity>
7.3895492554

> <CNN_VS>
2.1593270302

> <CNNaffinity_variance>
0.1226834059

$$$$
[H]OC([H])([H])[C@@]1([H])N(C([H])([H])/C([H])=C(\[H])C(=O)N([H])c2c(OC([H])([H])[H])c([H])c3nc([H])nc(N([H])c4c([H])c([H])c(Oc5nc([H])c([H])c([H])c5[H])c([H])c4Cl)c3c2[H])C([H])([H])C([H])([H])C([H])([H])C1([H])[H]


 44 48  0  0  0  0  0  0  0  0999 V2000
    1.1594  -53.1855  -27.1863 C   0  0  0  0  0  0  0  0  0  0  0  0
    0.2211  -54.1432  -26.7539 C   0  0  0  0  0  0  0  0  0  0  0  0
    0.0256  -54.1947  -25.3478 C   0  0  0  0  0  0  0  0  0  0  0  0
   -0.8630  -55.0540  -24.9541 N   0  0  0  0  0  0  0  0  0  0  0  0
   -1.1809  -55.0377  -23.6987 C   0  0  0  0  0  0  0  0  0  0  0  0
   -0.6991  -54.2056  -22.7781 N   0  0  0  0  0  0  0  0  0  0  0  0
    0.2132  -53.3745  -23.2551 C   0  0  0  0  0  0  0  0  0  0  0  0
    0.7562  -53.2771  -24.5627 C   0  0  0  0  0  0  0  0  0  0  0  0
    1.6443  -52.4463  -25.0601 C   0  0  0  0  0  0  0  0  0  0  0  0
    1.9640  -52.3218  -26.3371 C   0  0  0  0  0  0  0  0  0  0  0  0
    3.0232  -51.6647  -27.1002 N   0  0  0  0  0  0  0  0  0  0  0  0
    3.1245  -50.3587  -26.6588 C   0  0  0  0  0  0  0  0  0  0  0  0
    1.6403  -50.3783  -26.0453 O   0  0  0  0  0  0  0  0  0  0  0  0
    3.5282  -52.1118  -27.8125 H   0  0  0  0  0  0  0  0  0  0  0  0
    3.2842  -49.0219  -26.2228 C   0  0  0  0  0  0  0  0  0  0  0  0
    4.2436  -48.7866  -25.4304 C   0  0  0  0  0  0  0  0  0  0  0  0
    4.7087  -47.6542  -24.6991 C   0  0  0  0  0  0  0  0  0  0  0  0
    4.1187  -47.8461  -23.3794 N   0  0  0  0  0  0  0  0  0  0  0  0
    4.9214  -48.5651  -22.4933 C   0  0  0  0  0  0  0  0  0  0  0  0
    5.0843  -47.8362  -21.1617 C   0  0  0  0  0  0  0  0  0  0  0  0
    3.7372  -47.5133  -20.6147 C   0  0  0  0  0  0  0  0  0  0  0  0
    2.5874  -47.6915  -21.5536 C   0  0  0  0  0  0  0  0  0  0  0  0
    2.9341  -47.2612  -23.0058 C   0  0  0  0  0  0  0  0  0  0  0  0
    3.0050  -45.7189  -23.0143 C   0  0  0  0  0  0  0  0  0  0  0  0
    2.1116  -45.3296  -24.0361 O   0  0  0  0  0  0  0  0  0  0  0  0
    2.0041  -46.0010  -24.7031 H   0  0  0  0  0  0  0  0  0  0  0  0
   -0.0856  -52.8564  -29.1086 C   0  0  0  0  0  0  0  0  0  0  0  0
    1.2810  -52.9309  -28.5346 O   0  0  0  0  0  0  0  0  0  0  0  0
    0.2520  -51.9998  -22.5819 N   0  0  0  0  0  0  0  0  0  0  0  0
   -0.3223  -51.2283  -22.8451 H   0  0  0  0  0  0  0  0  0  0  0  0
    1.1676  -52.0510  -21.4477 C   0  0  0  0  0  0  0  0  0  0  0  0
    2.4763  -51.5927  -21.8801 C   0  0  0  0  0  0  0  0  0  0  0  0
    3.4284  -51.2878  -20.8714 C   0  0  0  0  0  0  0  0  0  0  0  0
    3.0725  -51.4396  -19.5099 C   0  0  0  0  0  0  0  0  0  0  0  0
    1.9041  -51.8375  -19.2583 C   0  0  0  0  0  0  0  0  0  0  0  0
    0.8839  -52.1708  -20.2122 C   0  0  0  0  0  0  0  0  0  0  0  0
   -0.6149  -52.8613  -19.6702 Cl  0  0  0  0  0  0  0  0  0  0  0  0
    4.1567  -51.0455  -18.6904 O   0  0  0  0  0  0  0  0  0  0  0  0
    3.6217  -50.5686  -17.4269 C   0  0  0  0  0  0  0  0  0  0  0  0
    2.9766  -49.4031  -17.3270 C   0  0  0  0  0  0  0  0  0  0  0  0
    2.4926  -48.8817  -16.1286 C   0  0  0  0  0  0  0  0  0  0  0  0
    2.6956  -49.6565  -14.9803 C   0  0  0  0  0  0  0  0  0  0  0  0
    3.3641  -50.9191  -15.1452 C   0  0  0  0  0  0  0  0  0  0  0  0
    3.7880  -51.3177  -16.3042 N   0  0  0  0  0  0  0  0  0  0  0  0
 27 28  1  0  0  0
 28  1  1  0  0  0
  1  2  2  0  0  0
  2  3  1  0  0  0
  3  4  2  0  0  0
  4  5  1  0  0  0
  5  6  2  0  0  0
  6  7  1  0  0  0
  7 29  1  0  0  0
 29 31  1  0  0  0
 31 32  2  0  0  0
 32 33  1  0  0  0
 33 34  2  0  0  0
 34 38  1  0  0  0
 38 39  1  0  0  0
 39 40  2  0  0  0
 40 41  1  0  0  0
 41 42  2  0  0  0
 42 43  1  0  0  0
 43 44  2  0  0  0
 34 35  1  0  0  0
 35 36  2  0  0  0
 36 37  1  0  0  0
  7  8  2  0  0  0
  8  9  1  0  0  0
  9 10  2  0  0  0
 10 11  1  0  0  0
 11 12  1  0  0  0
 12 13  2  0  0  0
 12 15  1  0  0  0
 15 16  2  0  0  0
 16 17  1  0  0  0
 17 18  1  0  0  0
 18 19  1  0  0  0
 19 20  1  0  0  0
 20 21  1  0  0  0
 21 22  1  0  0  0
 22 23  1  0  0  0
 23 24  1  0  0  0
 24 25  1  0  0  0
 10  1  1  0  0  0
 23 18  1  0  0  0
  8  3  1  0  0  0
 36 31  1  0  0  0
 44 39  1  0  0  0
 29 30  1  0  0  0
 11 14  1  0  0  0
 25 26  1  0  0  0
M  END
> <minimizedAffinity>
-8.18459

> <CNNscore>
0.2778071463

> <CNNaffinity>
7.4745416641

> <CNN_VS>
2.0764811039

> <CNNaffinity_variance>
0.2193364650

$$$$
[H]OC([H])([H])[C@@]1([H])N(C([H])([H])/C([H])=C(\[H])C(=O)N([H])c2c(OC([H])([H])[H])c([H])c3nc([H])nc(N([H])c4c([H])c([H])c(Oc5nc([H])c([H])c([H])c5[H])c([H])c4Cl)c3c2[H])C([H])([H])C([H])([H])C([H])([H])C1([H])[H]


 44 48  0  0  0  0  0  0  0  0999 V2000
    1.1445  -53.2203  -27.2260 C   0  0  0  0  0  0  0  0  0  0  0  0
    0.2205  -54.1893  -26.7878 C   0  0  0  0  0  0  0  0  0  0  0  0
    0.0257  -54.2352  -25.3814 C   0  0  0  0  0  0  0  0  0  0  0  0
   -0.8501  -55.1052  -24.9826 N   0  0  0  0  0  0  0  0  0  0  0  0
   -1.1683  -55.0860  -23.7273 C   0  0  0  0  0  0  0  0  0  0  0  0
   -0.6990  -54.2413  -22.8117 N   0  0  0  0  0  0  0  0  0  0  0  0
    0.2008  -53.3996  -23.2937 C   0  0  0  0  0  0  0  0  0  0  0  0
    0.7424  -53.3020  -24.6019 C   0  0  0  0  0  0  0  0  0  0  0  0
    1.6181  -52.4611  -25.1042 C   0  0  0  0  0  0  0  0  0  0  0  0
    1.9360  -52.3396  -26.3820 C   0  0  0  0  0  0  0  0  0  0  0  0
    2.9854  -51.6714  -27.1490 N   0  0  0  0  0  0  0  0  0  0  0  0
    3.1564  -50.4021  -26.6291 C   0  0  0  0  0  0  0  0  0  0  0  0
    1.7008  -50.4095  -25.9501 O   0  0  0  0  0  0  0  0  0  0  0  0
    3.4410  -52.0879  -27.9115 H   0  0  0  0  0  0  0  0  0  0  0  0
    3.3865  -49.1039  -26.1151 C   0  0  0  0  0  0  0  0  0  0  0  0
    4.1452  -49.0117  -25.1054 C   0  0  0  0  0  0  0  0  0  0  0  0
    4.5680  -47.9607  -24.2392 C   0  0  0  0  0  0  0  0  0  0  0  0
    5.6887  -48.5544  -23.5194 N   0  0  0  0  0  0  0  0  0  0  0  0
    5.4907  -49.8853  -23.1506 C   0  0  0  0  0  0  0  0  0  0  0  0
    6.6574  -50.7698  -23.5833 C   0  0  0  0  0  0  0  0  0  0  0  0
    7.9271  -50.1916  -23.0620 C   0  0  0  0  0  0  0  0  0  0  0  0
    7.8395  -48.8039  -22.5124 C   0  0  0  0  0  0  0  0  0  0  0  0
    6.8807  -47.8988  -23.3345 C   0  0  0  0  0  0  0  0  0  0  0  0
    7.5942  -47.5777  -24.6654 C   0  0  0  0  0  0  0  0  0  0  0  0
    7.6122  -46.1670  -24.7256 O   0  0  0  0  0  0  0  0  0  0  0  0
    6.9000  -45.7710  -24.2324 H   0  0  0  0  0  0  0  0  0  0  0  0
   -0.1044  -52.8010  -29.1280 C   0  0  0  0  0  0  0  0  0  0  0  0
    1.2624  -52.9721  -28.5758 O   0  0  0  0  0  0  0  0  0  0  0  0
    0.2190  -52.0204  -22.6288 N   0  0  0  0  0  0  0  0  0  0  0  0
   -0.3186  -51.2398  -22.9383 H   0  0  0  0  0  0  0  0  0  0  0  0
    1.0487  -52.0806  -21.4308 C   0  0  0  0  0  0  0  0  0  0  0  0
    2.3854  -51.6189  -21.7620 C   0  0  0  0  0  0  0  0  0  0  0  0
    3.2605  -51.3220  -20.6836 C   0  0  0  0  0  0  0  0  0  0  0  0
    2.8054  -51.4846  -19.3532 C   0  0  0  0  0  0  0  0  0  0  0  0
    1.6219  -51.8845  -19.1915 C   0  0  0  0  0  0  0  0  0  0  0  0
    0.6749  -52.2101  -20.2205 C   0  0  0  0  0  0  0  0  0  0  0  0
   -0.8594  -52.9049  -19.7958 Cl  0  0  0  0  0  0  0  0  0  0  0  0
    3.8262  -51.0970  -18.4530 O   0  0  0  0  0  0  0  0  0  0  0  0
    4.0842  -49.6799  -18.6410 C   0  0  0  0  0  0  0  0  0  0  0  0
    3.2096  -48.7451  -18.2593 C   0  0  0  0  0  0  0  0  0  0  0  0
    3.3911  -47.3789  -18.4660 C   0  0  0  0  0  0  0  0  0  0  0  0
    4.5784  -46.9928  -19.0995 C   0  0  0  0  0  0  0  0  0  0  0  0
    5.5034  -48.0334  -19.4595 C   0  0  0  0  0  0  0  0  0  0  0  0
    5.2423  -49.2834  -19.2332 N   0  0  0  0  0  0  0  0  0  0  0  0
 27 28  1  0  0  0
 28  1  1  0  0  0
  1  2  2  0  0  0
  2  3  1  0  0  0
  3  4  2  0  0  0
  4  5  1  0  0  0
  5  6  2  0  0  0
  6  7  1  0  0  0
  7 29  1  0  0  0
 29 31  1  0  0  0
 31 32  2  0  0  0
 32 33  1  0  0  0
 33 34  2  0  0  0
 34 38  1  0  0  0
 38 39  1  0  0  0
 39 40  2  0  0  0
 40 41  1  0  0  0
 41 42  2  0  0  0
 42 43  1  0  0  0
 43 44  2  0  0  0
 34 35  1  0  0  0
 35 36  2  0  0  0
 36 37  1  0  0  0
  7  8  2  0  0  0
  8  9  1  0  0  0
  9 10  2  0  0  0
 10 11  1  0  0  0
 11 12  1  0  0  0
 12 13  2  0  0  0
 12 15  1  0  0  0
 15 16  2  0  0  0
 16 17  1  0  0  0
 17 18  1  0  0  0
 18 19  1  0  0  0
 19 20  1  0  0  0
 20 21  1  0  0  0
 21 22  1  0  0  0
 22 23  1  0  0  0
 23 24  1  0  0  0
 24 25  1  0  0  0
 10  1  1  0  0  0
 23 18  1  0  0  0
  8  3  1  0  0  0
 36 31  1  0  0  0
 44 39  1  0  0  0
 29 30  1  0  0  0
 11 14  1  0  0  0
 25 26  1  0  0  0
M  END
> <minimizedAffinity>
-7.88844

> <CNNscore>
0.2300809473

> <CNNaffinity>
7.4087610245

> <CNN_VS>
1.7046147585

> <CNNaffinity_variance>
0.2635086477

$$$$
[H]OC([H])([H])[C@@]1([H])N(C([H])([H])/C([H])=C(\[H])C(=O)N([H])c2c(OC([H])([H])[H])c([H])c3nc([H])nc(N([H])c4c([H])c([H])c(Oc5nc([H])c([H])c([H])c5[H])c([H])c4Cl)c3c2[H])C([H])([H])C([H])([H])C([H])([H])C1([H])[H]


 44 48  0  0  0  0  0  0  0  0999 V2000
    0.6835  -53.8175  -25.3469 C   0  0  0  0  0  0  0  0  0  0  0  0
   -0.2944  -54.4821  -24.5810 C   0  0  0  0  0  0  0  0  0  0  0  0
   -0.4181  -54.0225  -23.2425 C   0  0  0  0  0  0  0  0  0  0  0  0
   -1.3417  -54.6130  -22.5488 N   0  0  0  0  0  0  0  0  0  0  0  0
   -1.5907  -54.1325  -21.3721 C   0  0  0  0  0  0  0  0  0  0  0  0
   -1.0045  -53.0743  -20.8164 N   0  0  0  0  0  0  0  0  0  0  0  0
   -0.0637  -52.5413  -21.5788 C   0  0  0  0  0  0  0  0  0  0  0  0
    0.4146  -52.9525  -22.8502 C   0  0  0  0  0  0  0  0  0  0  0  0
    1.3303  -52.4249  -23.6309 C   0  0  0  0  0  0  0  0  0  0  0  0
    1.5896  -52.7816  -24.8774 C   0  0  0  0  0  0  0  0  0  0  0  0
    2.6496  -52.5231  -25.8499 N   0  0  0  0  0  0  0  0  0  0  0  0
    2.7749  -51.1543  -25.9960 C   0  0  0  0  0  0  0  0  0  0  0  0
    1.2975  -50.8888  -25.4246 O   0  0  0  0  0  0  0  0  0  0  0  0
    3.1400  -53.2362  -26.3117 H   0  0  0  0  0  0  0  0  0  0  0  0
    2.9588  -49.7608  -26.1602 C   0  0  0  0  0  0  0  0  0  0  0  0
    3.7595  -49.3900  -27.0686 C   0  0  0  0  0  0  0  0  0  0  0  0
    4.2936  -48.1442  -27.5118 C   0  0  0  0  0  0  0  0  0  0  0  0
    3.6725  -47.1782  -26.6131 N   0  0  0  0  0  0  0  0  0  0  0  0
    4.3701  -46.9746  -25.4221 C   0  0  0  0  0  0  0  0  0  0  0  0
    4.6121  -45.4907  -25.1571 C   0  0  0  0  0  0  0  0  0  0  0  0
    3.3119  -44.7665  -25.2153 C   0  0  0  0  0  0  0  0  0  0  0  0
    2.1571  -45.5347  -25.7735 C   0  0  0  0  0  0  0  0  0  0  0  0
    2.5682  -46.4426  -26.9656 C   0  0  0  0  0  0  0  0  0  0  0  0
    2.8336  -45.5133  -28.1695 C   0  0  0  0  0  0  0  0  0  0  0  0
    1.7637  -45.7676  -29.0552 O   0  0  0  0  0  0  0  0  0  0  0  0
    1.4005  -46.6417  -28.9483 H   0  0  0  0  0  0  0  0  0  0  0  0
   -0.4320  -53.4286  -27.3364 C   0  0  0  0  0  0  0  0  0  0  0  0
    0.7506  -54.0611  -26.7010 O   0  0  0  0  0  0  0  0  0  0  0  0
    0.1054  -51.0264  -21.4347 N   0  0  0  0  0  0  0  0  0  0  0  0
   -0.4658  -50.3505  -21.8942 H   0  0  0  0  0  0  0  0  0  0  0  0
    1.1441  -50.7553  -20.4473 C   0  0  0  0  0  0  0  0  0  0  0  0
    0.6453  -51.1136  -19.1311 C   0  0  0  0  0  0  0  0  0  0  0  0
    1.5914  -51.2039  -18.0757 C   0  0  0  0  0  0  0  0  0  0  0  0
    2.9574  -50.9461  -18.3419 C   0  0  0  0  0  0  0  0  0  0  0  0
    3.2705  -50.6517  -19.5259 C   0  0  0  0  0  0  0  0  0  0  0  0
    2.3820  -50.5348  -20.6478 C   0  0  0  0  0  0  0  0  0  0  0  0
    2.9834  -49.9557  -22.1710 Cl  0  0  0  0  0  0  0  0  0  0  0  0
    3.7131  -51.1306  -17.1597 O   0  0  0  0  0  0  0  0  0  0  0  0
    3.3052  -50.1220  -16.1972 C   0  0  0  0  0  0  0  0  0  0  0  0
    3.5322  -48.8209  -16.3972 C   0  0  0  0  0  0  0  0  0  0  0  0
    3.2058  -47.8240  -15.4797 C   0  0  0  0  0  0  0  0  0  0  0  0
    2.5894  -48.2406  -14.2938 C   0  0  0  0  0  0  0  0  0  0  0  0
    2.3348  -49.6477  -14.1408 C   0  0  0  0  0  0  0  0  0  0  0  0
    2.6839  -50.5045  -15.0497 N   0  0  0  0  0  0  0  0  0  0  0  0
 27 28  1  0  0  0
 28  1  1  0  0  0
  1  2  2  0  0  0
  2  3  1  0  0  0
  3  4  2  0  0  0
  4  5  1  0  0  0
  5  6  2  0  0  0
  6  7  1  0  0  0
  7 29  1  0  0  0
 29 31  1  0  0  0
 31 32  2  0  0  0
 32 33  1  0  0  0
 33 34  2  0  0  0
 34 38  1  0  0  0
 38 39  1  0  0  0
 39 40  2  0  0  0
 40 41  1  0  0  0
 41 42  2  0  0  0
 42 43  1  0  0  0
 43 44  2  0  0  0
 34 35  1  0  0  0
 35 36  2  0  0  0
 36 37  1  0  0  0
  7  8  2  0  0  0
  8  9  1  0  0  0
  9 10  2  0  0  0
 10 11  1  0  0  0
 11 12  1  0  0  0
 12 13  2  0  0  0
 12 15  1  0  0  0
 15 16  2  0  0  0
 16 17  1  0  0  0
 17 18  1  0  0  0
 18 19  1  0  0  0
 19 20  1  0  0  0
 20 21  1  0  0  0
 21 22  1  0  0  0
 22 23  1  0  0  0
 23 24  1  0  0  0
 24 25  1  0  0  0
 10  1  1  0  0  0
 23 18  1  0  0  0
  8  3  1  0  0  0
 36 31  1  0  0  0
 44 39  1  0  0  0
 29 30  1  0  0  0
 11 14  1  0  0  0
 25 26  1  0  0  0
M  END
> <minimizedAffinity>
-7.62037

> <CNNscore>
0.2264283895

> <CNNaffinity>
7.3980841637

> <CNN_VS>
1.6751363277

> <CNNaffinity_variance>
0.3029297590

$$$$
[H]OC(=O)/C(=C(/[H])c1oc(-c2c([H])c([H])c3nc([H])nc(N([H])c4c([H])c([H])c(OC([H])([H])c5c([H])c([H])c([H])c([H])c5[H])c(Cl)c4[H])c3c2[H])c([H])c1[H])C([H])([H])C([H])([H])C([H])([H])C([H])([H])C([H])([H])S[H]


 45 49  0  0  0  0  0  0  0  0999 V2000
    0.6373  -49.6574  -16.4501 C   0  0  0  0  0  0  0  0  0  0  0  0
   -0.2680  -49.2243  -15.5207 C   0  0  0  0  0  0  0  0  0  0  0  0
   -1.4540  -49.8495  -15.2610 C   0  0  0  0  0  0  0  0  0  0  0  0
   -1.7598  -50.9942  -15.9849 C   0  0  0  0  0  0  0  0  0  0  0  0
   -2.9293  -51.6265  -15.7775 N   0  0  0  0  0  0  0  0  0  0  0  0
   -3.2376  -52.7195  -16.4874 C   0  0  0  0  0  0  0  0  0  0  0  0
   -2.3779  -53.2127  -17.4282 N   0  0  0  0  0  0  0  0  0  0  0  0
   -1.1916  -52.6337  -17.6886 C   0  0  0  0  0  0  0  0  0  0  0  0
   -0.8751  -51.4955  -16.9520 C   0  0  0  0  0  0  0  0  0  0  0  0
    0.3040  -50.8037  -17.1535 C   0  0  0  0  0  0  0  0  0  0  0  0
    3.7948  -48.4120  -17.7090 C   0  0  0  0  0  0  0  0  0  0  0  0
    3.5910  -47.5457  -16.5924 C   0  0  0  0  0  0  0  0  0  0  0  0
    2.4038  -47.9070  -16.0077 C   0  0  0  0  0  0  0  0  0  0  0  0
    1.9056  -48.9584  -16.7466 C   0  0  0  0  0  0  0  0  0  0  0  0
    2.7540  -49.1705  -17.6802 O   0  0  0  0  0  0  0  0  0  0  0  0
    5.0825  -47.7588  -19.7361 C   0  0  0  0  0  0  0  0  0  0  0  0
    4.9640  -48.3066  -18.5647 C   0  0  0  0  0  0  0  0  0  0  0  0
    3.9582  -47.1698  -20.4168 C   0  0  0  0  0  0  0  0  0  0  0  0
    3.0335  -47.7913  -21.2074 O   0  0  0  0  0  0  0  0  0  0  0  0
    3.8031  -45.9042  -20.2659 O   0  0  0  0  0  0  0  0  0  0  0  0
    2.0322  -47.6285  -21.2101 H   0  0  0  0  0  0  0  0  0  0  0  0
    6.4274  -47.7666  -20.4554 C   0  0  0  0  0  0  0  0  0  0  0  0
    7.0809  -49.1085  -20.4069 C   0  0  0  0  0  0  0  0  0  0  0  0
    7.0532  -49.7585  -21.7802 C   0  0  0  0  0  0  0  0  0  0  0  0
    6.0300  -50.8807  -21.7949 C   0  0  0  0  0  0  0  0  0  0  0  0
    3.4037  -51.3750  -22.4264 S   0  0  0  0  0  0  0  0  0  0  0  0
    4.9545  -50.4522  -22.7912 C   0  0  0  0  0  0  0  0  0  0  0  0
    2.4553  -51.0356  -23.4109 H   0  0  0  0  0  0  0  0  0  0  0  0
   -0.2684  -53.1803  -18.5967 N   0  0  0  0  0  0  0  0  0  0  0  0
    0.5715  -53.7215  -18.2456 H   0  0  0  0  0  0  0  0  0  0  0  0
   -0.3425  -53.0832  -20.0028 C   0  0  0  0  0  0  0  0  0  0  0  0
   -0.1225  -51.8504  -20.5764 C   0  0  0  0  0  0  0  0  0  0  0  0
   -0.2358  -51.6331  -21.9300 C   0  0  0  0  0  0  0  0  0  0  0  0
   -0.5844  -52.6827  -22.7605 C   0  0  0  0  0  0  0  0  0  0  0  0
   -0.8096  -53.9254  -22.2253 C   0  0  0  0  0  0  0  0  0  0  0  0
   -1.2480  -55.2999  -23.2293 Cl  0  0  0  0  0  0  0  0  0  0  0  0
   -0.6830  -54.1051  -20.8440 C   0  0  0  0  0  0  0  0  0  0  0  0
   -0.7150  -52.4494  -24.1445 O   0  0  0  0  0  0  0  0  0  0  0  0
    0.3117  -52.4644  -25.0625 C   0  0  0  0  0  0  0  0  0  0  0  0
   -0.0775  -52.5826  -26.4832 C   0  0  0  0  0  0  0  0  0  0  0  0
   -1.4030  -52.4258  -26.8938 C   0  0  0  0  0  0  0  0  0  0  0  0
   -1.7867  -52.5547  -28.2032 C   0  0  0  0  0  0  0  0  0  0  0  0
   -0.8674  -52.8459  -29.1802 C   0  0  0  0  0  0  0  0  0  0  0  0
    0.4508  -53.0072  -28.8080 C   0  0  0  0  0  0  0  0  0  0  0  0
    0.8309  -52.8757  -27.4773 C   0  0  0  0  0  0  0  0  0  0  0  0
 26 27  1  0  0  0
 27 25  1  0  0  0
 25 24  1  0  0  0
 24 23  1  0  0  0
 23 22  1  0  0  0
 22 16  1  0  0  0
 16 17  2  0  0  0
 17 11  1  0  0  0
 11 12  2  0  0  0
 12 13  1  0  0  0
 13 14  2  0  0  0
 14 15  1  0  0  0
 14  1  1  0  0  0
  1  2  2  0  0  0
  2  3  1  0  0  0
  3  4  2  0  0  0
  4  5  1  0  0  0
  5  6  2  0  0  0
  6  7  1  0  0  0
  7  8  2  0  0  0
  8 29  1  0  0  0
 29 31  1  0  0  0
 31 32  2  0  0  0
 32 33  1  0  0  0
 33 34  2  0  0  0
 34 38  1  0  0  0
 38 39  1  0  0  0
 39 40  1  0  0  0
 40 41  2  0  0  0
 41 42  1  0  0  0
 42 43  2  0  0  0
 43 44  1  0  0  0
 44 45  2  0  0  0
 34 35  1  0  0  0
 35 36  1  0  0  0
 35 37  2  0  0  0
  8  9  1  0  0  0
  9 10  2  0  0  0
 16 18  1  0  0  0
 18 19  1  0  0  0
 18 20  2  0  0  0
 15 11  1  0  0  0
 10  1  1  0  0  0
  9  4  1  0  0  0
 37 31  1  0  0  0
 45 40  1  0  0  0
 26 28  1  0  0  0
 29 30  1  0  0  0
 19 21  1  0  0  0
M  END
> <minimizedAffinity>
-8.09007

> <CNNscore>
0.2115021348

> <CNNaffinity>
7.2121543884

> <CNN_VS>
1.5253860950

> <CNNaffinity_variance>
0.3937989771

$$$$
[H]OC(=O)/C(=C(/[H])c1oc(-c2c([H])c([H])c3nc([H])nc(N([H])c4c([H])c([H])c(OC([H])([H])c5c([H])c([H])c([H])c([H])c5[H])c(Cl)c4[H])c3c2[H])c([H])c1[H])C([H])([H])C([H])([H])C([H])([H])C([H])([H])C([H])([H])S[H]


 45 49  0  0  0  0  0  0  0  0999 V2000
    0.1651  -53.5325  -23.6169 C   0  0  0  0  0  0  0  0  0  0  0  0
   -0.5277  -54.3147  -24.4994 C   0  0  0  0  0  0  0  0  0  0  0  0
   -0.1839  -54.4741  -25.8114 C   0  0  0  0  0  0  0  0  0  0  0  0
    0.9371  -53.8005  -26.2780 C   0  0  0  0  0  0  0  0  0  0  0  0
    1.2961  -53.9105  -27.5701 N   0  0  0  0  0  0  0  0  0  0  0  0
    2.3647  -53.2469  -28.0296 C   0  0  0  0  0  0  0  0  0  0  0  0
    3.1080  -52.4521  -27.2030 N   0  0  0  0  0  0  0  0  0  0  0  0
    2.8093  -52.2953  -25.9005 C   0  0  0  0  0  0  0  0  0  0  0  0
    1.6957  -52.9832  -25.4261 C   0  0  0  0  0  0  0  0  0  0  0  0
    1.2802  -52.8760  -24.1127 C   0  0  0  0  0  0  0  0  0  0  0  0
   -0.2900  -52.5744  -20.1555 C   0  0  0  0  0  0  0  0  0  0  0  0
   -1.2779  -53.5976  -20.2825 C   0  0  0  0  0  0  0  0  0  0  0  0
   -1.2211  -54.0609  -21.5725 C   0  0  0  0  0  0  0  0  0  0  0  0
   -0.2305  -53.3413  -22.2055 C   0  0  0  0  0  0  0  0  0  0  0  0
    0.2344  -52.5313  -21.3313 O   0  0  0  0  0  0  0  0  0  0  0  0
    0.9590  -51.1809  -18.5146 C   0  0  0  0  0  0  0  0  0  0  0  0
   -0.0763  -51.8579  -18.9100 C   0  0  0  0  0  0  0  0  0  0  0  0
    2.1520  -51.0802  -19.3151 C   0  0  0  0  0  0  0  0  0  0  0  0
    2.3078  -50.4507  -20.5176 O   0  0  0  0  0  0  0  0  0  0  0  0
    3.2007  -51.6528  -18.8450 O   0  0  0  0  0  0  0  0  0  0  0  0
    3.0937  -49.8759  -20.8025 H   0  0  0  0  0  0  0  0  0  0  0  0
    0.9574  -50.5026  -17.1486 C   0  0  0  0  0  0  0  0  0  0  0  0
   -0.2270  -50.8965  -16.3288 C   0  0  0  0  0  0  0  0  0  0  0  0
   -0.9807  -49.6617  -15.8637 C   0  0  0  0  0  0  0  0  0  0  0  0
   -2.0239  -50.0566  -14.8330 C   0  0  0  0  0  0  0  0  0  0  0  0
   -4.2148  -51.4283  -15.7597 S   0  0  0  0  0  0  0  0  0  0  0  0
   -2.4606  -51.4728  -15.2023 C   0  0  0  0  0  0  0  0  0  0  0  0
   -4.6254  -52.7529  -16.0058 H   0  0  0  0  0  0  0  0  0  0  0  0
    3.6144  -51.5442  -25.0269 N   0  0  0  0  0  0  0  0  0  0  0  0
    4.3118  -52.0274  -24.3930 H   0  0  0  0  0  0  0  0  0  0  0  0
    3.5959  -50.1391  -24.8953 C   0  0  0  0  0  0  0  0  0  0  0  0
    4.1959  -49.3910  -25.8840 C   0  0  0  0  0  0  0  0  0  0  0  0
    4.2916  -48.0202  -25.8199 C   0  0  0  0  0  0  0  0  0  0  0  0
    3.7710  -47.3526  -24.7262 C   0  0  0  0  0  0  0  0  0  0  0  0
    3.1645  -48.0641  -23.7225 C   0  0  0  0  0  0  0  0  0  0  0  0
    2.4775  -47.2725  -22.3116 Cl  0  0  0  0  0  0  0  0  0  0  0  0
    3.0867  -49.4568  -23.8262 C   0  0  0  0  0  0  0  0  0  0  0  0
    3.8871  -45.9494  -24.6588 O   0  0  0  0  0  0  0  0  0  0  0  0
    3.0792  -45.0438  -25.3103 C   0  0  0  0  0  0  0  0  0  0  0  0
    3.0739  -45.1096  -26.7865 C   0  0  0  0  0  0  0  0  0  0  0  0
    2.0326  -45.7215  -27.4875 C   0  0  0  0  0  0  0  0  0  0  0  0
    2.0214  -45.8128  -28.8550 C   0  0  0  0  0  0  0  0  0  0  0  0
    3.0500  -45.2958  -29.6029 C   0  0  0  0  0  0  0  0  0  0  0  0
    4.0944  -44.6848  -28.9411 C   0  0  0  0  0  0  0  0  0  0  0  0
    4.0979  -44.5976  -27.5537 C   0  0  0  0  0  0  0  0  0  0  0  0
 26 27  1  0  0  0
 27 25  1  0  0  0
 25 24  1  0  0  0
 24 23  1  0  0  0
 23 22  1  0  0  0
 22 16  1  0  0  0
 16 17  2  0  0  0
 17 11  1  0  0  0
 11 12  2  0  0  0
 12 13  1  0  0  0
 13 14  2  0  0  0
 14 15  1  0  0  0
 14  1  1  0  0  0
  1  2  2  0  0  0
  2  3  1  0  0  0
  3  4  2  0  0  0
  4  5  1  0  0  0
  5  6  2  0  0  0
  6  7  1  0  0  0
  7  8  2  0  0  0
  8 29  1  0  0  0
 29 31  1  0  0  0
 31 32  2  0  0  0
 32 33  1  0  0  0
 33 34  2  0  0  0
 34 38  1  0  0  0
 38 39  1  0  0  0
 39 40  1  0  0  0
 40 41  2  0  0  0
 41 42  1  0  0  0
 42 43  2  0  0  0
 43 44  1  0  0  0
 44 45  2  0  0  0
 34 35  1  0  0  0
 35 36  1  0  0  0
 35 37  2  0  0  0
  8  9  1  0  0  0
  9 10  2  0  0  0
 16 18  1  0  0  0
 18 19  1  0  0  0
 18 20  2  0  0  0
 15 11  1  0  0  0
 10  1  1  0  0  0
  9  4  1  0  0  0
 37 31  1  0  0  0
 45 40  1  0  0  0
 26 28  1  0  0  0
 29 30  1  0  0  0
 19 21  1  0  0  0
M  END
> <minimizedAffinity>
-8.22877

> <CNNscore>
0.1320479512

> <CNNaffinity>
7.2028551102

> <CNN_VS>
0.9511222839

> <CNNaffinity_variance>
0.2155517042

$$$$
[H]OC(=O)/C(=C(/[H])c1oc(-c2c([H])c([H])c3nc([H])nc(N([H])c4c([H])c([H])c(OC([H])([H])c5c([H])c([H])c([H])c([H])c5[H])c(Cl)c4[H])c3c2[H])c([H])c1[H])C([H])([H])C([H])([H])C([H])([H])C([H])([H])C([H])([H])S[H]


 45 49  0  0  0  0  0  0  0  0999 V2000
    0.0643  -52.9113  -23.4974 C   0  0  0  0  0  0  0  0  0  0  0  0
   -0.8008  -52.7121  -24.5379 C   0  0  0  0  0  0  0  0  0  0  0  0
   -0.4122  -52.5909  -25.8415 C   0  0  0  0  0  0  0  0  0  0  0  0
    0.9439  -52.6744  -26.1279 C   0  0  0  0  0  0  0  0  0  0  0  0
    1.3712  -52.5354  -27.3963 N   0  0  0  0  0  0  0  0  0  0  0  0
    2.6797  -52.5951  -27.6749 C   0  0  0  0  0  0  0  0  0  0  0  0
    3.6009  -52.7983  -26.6862 N   0  0  0  0  0  0  0  0  0  0  0  0
    3.2470  -52.9467  -25.3965 C   0  0  0  0  0  0  0  0  0  0  0  0
    1.8864  -52.8805  -25.1089 C   0  0  0  0  0  0  0  0  0  0  0  0
    1.4103  -52.9929  -23.8167 C   0  0  0  0  0  0  0  0  0  0  0  0
   -0.5233  -52.6217  -19.9370 C   0  0  0  0  0  0  0  0  0  0  0  0
   -1.3875  -53.7105  -20.2635 C   0  0  0  0  0  0  0  0  0  0  0  0
   -1.2685  -53.9349  -21.6117 C   0  0  0  0  0  0  0  0  0  0  0  0
   -0.3613  -53.0118  -22.0854 C   0  0  0  0  0  0  0  0  0  0  0  0
    0.0018  -52.3184  -21.0735 O   0  0  0  0  0  0  0  0  0  0  0  0
    0.5382  -51.3886  -18.0537 C   0  0  0  0  0  0  0  0  0  0  0  0
   -0.4021  -52.1118  -18.5821 C   0  0  0  0  0  0  0  0  0  0  0  0
    1.7076  -51.0000  -18.7990 C   0  0  0  0  0  0  0  0  0  0  0  0
    2.8570  -51.7127  -18.9929 O   0  0  0  0  0  0  0  0  0  0  0  0
    1.6702  -49.8407  -19.3496 O   0  0  0  0  0  0  0  0  0  0  0  0
    3.3789  -51.7957  -19.8588 H   0  0  0  0  0  0  0  0  0  0  0  0
    0.4509  -50.9643  -16.5913 C   0  0  0  0  0  0  0  0  0  0  0  0
   -0.8635  -51.3245  -15.9809 C   0  0  0  0  0  0  0  0  0  0  0  0
   -1.5414  -50.0857  -15.4197 C   0  0  0  0  0  0  0  0  0  0  0  0
   -3.0103  -50.3765  -15.1657 C   0  0  0  0  0  0  0  0  0  0  0  0
   -4.6037  -52.5948  -14.8816 S   0  0  0  0  0  0  0  0  0  0  0  0
   -3.2910  -51.7216  -15.8325 C   0  0  0  0  0  0  0  0  0  0  0  0
   -4.7812  -53.8683  -15.4565 H   0  0  0  0  0  0  0  0  0  0  0  0
    4.1806  -53.2356  -24.3864 N   0  0  0  0  0  0  0  0  0  0  0  0
    4.3527  -54.2368  -24.0871 H   0  0  0  0  0  0  0  0  0  0  0  0
    4.9580  -52.2859  -23.6895 C   0  0  0  0  0  0  0  0  0  0  0  0
    4.6009  -51.9866  -22.3934 C   0  0  0  0  0  0  0  0  0  0  0  0
    5.2500  -51.0289  -21.6491 C   0  0  0  0  0  0  0  0  0  0  0  0
    6.3034  -50.3300  -22.2102 C   0  0  0  0  0  0  0  0  0  0  0  0
    6.6887  -50.6020  -23.4982 C   0  0  0  0  0  0  0  0  0  0  0  0
    8.0240  -49.7533  -24.2638 Cl  0  0  0  0  0  0  0  0  0  0  0  0
    6.0034  -51.5841  -24.2211 C   0  0  0  0  0  0  0  0  0  0  0  0
    6.9535  -49.3384  -21.4479 O   0  0  0  0  0  0  0  0  0  0  0  0
    6.6676  -47.9913  -21.4702 C   0  0  0  0  0  0  0  0  0  0  0  0
    5.3122  -47.6136  -21.9218 C   0  0  0  0  0  0  0  0  0  0  0  0
    5.0630  -47.2206  -23.2385 C   0  0  0  0  0  0  0  0  0  0  0  0
    3.8177  -46.8446  -23.6698 C   0  0  0  0  0  0  0  0  0  0  0  0
    2.7470  -46.8412  -22.8108 C   0  0  0  0  0  0  0  0  0  0  0  0
    2.9591  -47.2240  -21.5029 C   0  0  0  0  0  0  0  0  0  0  0  0
    4.2260  -47.6029  -21.0737 C   0  0  0  0  0  0  0  0  0  0  0  0
 26 27  1  0  0  0
 27 25  1  0  0  0
 25 24  1  0  0  0
 24 23  1  0  0  0
 23 22  1  0  0  0
 22 16  1  0  0  0
 16 17  2  0  0  0
 17 11  1  0  0  0
 11 12  2  0  0  0
 12 13  1  0  0  0
 13 14  2  0  0  0
 14 15  1  0  0  0
 14  1  1  0  0  0
  1  2  2  0  0  0
  2  3  1  0  0  0
  3  4  2  0  0  0
  4  5  1  0  0  0
  5  6  2  0  0  0
  6  7  1  0  0  0
  7  8  2  0  0  0
  8 29  1  0  0  0
 29 31  1  0  0  0
 31 32  2  0  0  0
 32 33  1  0  0  0
 33 34  2  0  0  0
 34 38  1  0  0  0
 38 39  1  0  0  0
 39 40  1  0  0  0
 40 41  2  0  0  0
 41 42  1  0  0  0
 42 43  2  0  0  0
 43 44  1  0  0  0
 44 45  2  0  0  0
 34 35  1  0  0  0
 35 36  1  0  0  0
 35 37  2  0  0  0
  8  9  1  0  0  0
  9 10  2  0  0  0
 16 18  1  0  0  0
 18 19  1  0  0  0
 18 20  2  0  0  0
 15 11  1  0  0  0
 10  1  1  0  0  0
  9  4  1  0  0  0
 37 31  1  0  0  0
 45 40  1  0  0  0
 26 28  1  0  0  0
 29 30  1  0  0  0
 19 21  1  0  0  0
M  END
> <minimizedAffinity>
-7.70101

> <CNNscore>
0.1145120189

> <CNNaffinity>
6.7077646255

> <CNN_VS>
0.7681196928

> <CNNaffinity_variance>
1.3950835466

$$$$
[H]OC(=O)/C(=C(/[H])c1oc(-c2c([H])c([H])c3nc([H])nc(N([H])c4c([H])c([H])c(OC([H])([H])c5c([H])c([H])c([H])c([H])c5[H])c(Cl)c4[H])c3c2[H])c([H])c1[H])C([H])([H])C([H])([H])C([H])([H])C([H])([H])C([H])([H])S[H]


 45 49  0  0  0  0  0  0  0  0999 V2000
   -0.2181  -53.7088  -23.6223 C   0  0  0  0  0  0  0  0  0  0  0  0
   -0.5755  -54.8980  -24.1959 C   0  0  0  0  0  0  0  0  0  0  0  0
   -0.3754  -55.2013  -25.5123 C   0  0  0  0  0  0  0  0  0  0  0  0
    0.2270  -54.2439  -26.3176 C   0  0  0  0  0  0  0  0  0  0  0  0
    0.4199  -54.4930  -27.6258 N   0  0  0  0  0  0  0  0  0  0  0  0
    0.9822  -53.5651  -28.4109 C   0  0  0  0  0  0  0  0  0  0  0  0
    1.3702  -52.3566  -27.9044 N   0  0  0  0  0  0  0  0  0  0  0  0
    1.2096  -52.0384  -26.6070 C   0  0  0  0  0  0  0  0  0  0  0  0
    0.6213  -53.0032  -25.7938 C   0  0  0  0  0  0  0  0  0  0  0  0
    0.3832  -52.7758  -24.4518 C   0  0  0  0  0  0  0  0  0  0  0  0
   -0.3433  -52.3827  -20.2560 C   0  0  0  0  0  0  0  0  0  0  0  0
   -1.2737  -53.4611  -20.1540 C   0  0  0  0  0  0  0  0  0  0  0  0
   -1.3324  -54.0663  -21.3838 C   0  0  0  0  0  0  0  0  0  0  0  0
   -0.4651  -53.3764  -22.2033 C   0  0  0  0  0  0  0  0  0  0  0  0
    0.0431  -52.4493  -21.4831 O   0  0  0  0  0  0  0  0  0  0  0  0
    1.0866  -50.9549  -18.8032 C   0  0  0  0  0  0  0  0  0  0  0  0
   -0.0370  -51.5181  -19.1295 C   0  0  0  0  0  0  0  0  0  0  0  0
    2.2923  -51.1690  -19.5613 C   0  0  0  0  0  0  0  0  0  0  0  0
    2.5541  -50.7950  -20.8490 O   0  0  0  0  0  0  0  0  0  0  0  0
    3.2402  -51.7890  -18.9565 O   0  0  0  0  0  0  0  0  0  0  0  0
    3.4189  -50.3973  -21.1998 H   0  0  0  0  0  0  0  0  0  0  0  0
    1.1725  -50.0750  -17.5603 C   0  0  0  0  0  0  0  0  0  0  0  0
    0.2654  -50.5504  -16.4736 C   0  0  0  0  0  0  0  0  0  0  0  0
   -0.6757  -49.4361  -16.0471 C   0  0  0  0  0  0  0  0  0  0  0  0
   -1.8381  -50.0197  -15.2630 C   0  0  0  0  0  0  0  0  0  0  0  0
   -3.4136  -52.1232  -16.0591 S   0  0  0  0  0  0  0  0  0  0  0  0
   -1.7702  -51.5303  -15.4779 C   0  0  0  0  0  0  0  0  0  0  0  0
   -3.3569  -53.5268  -16.1615 H   0  0  0  0  0  0  0  0  0  0  0  0
    1.6784  -50.8303  -26.0628 N   0  0  0  0  0  0  0  0  0  0  0  0
    1.1818  -49.9193  -26.2750 H   0  0  0  0  0  0  0  0  0  0  0  0
    2.7994  -50.6900  -25.2168 C   0  0  0  0  0  0  0  0  0  0  0  0
    2.9475  -49.5028  -24.5344 C   0  0  0  0  0  0  0  0  0  0  0  0
    4.0367  -49.2384  -23.7368 C   0  0  0  0  0  0  0  0  0  0  0  0
    5.0308  -50.1910  -23.6057 C   0  0  0  0  0  0  0  0  0  0  0  0
    4.9170  -51.3862  -24.2690 C   0  0  0  0  0  0  0  0  0  0  0  0
    6.1429  -52.6388  -24.1365 Cl  0  0  0  0  0  0  0  0  0  0  0  0
    3.7932  -51.6165  -25.0694 C   0  0  0  0  0  0  0  0  0  0  0  0
    6.1523  -49.9072  -22.8002 O   0  0  0  0  0  0  0  0  0  0  0  0
    7.4410  -49.7268  -23.2516 C   0  0  0  0  0  0  0  0  0  0  0  0
    7.6070  -48.8685  -24.4429 C   0  0  0  0  0  0  0  0  0  0  0  0
    7.9506  -49.4022  -25.6867 C   0  0  0  0  0  0  0  0  0  0  0  0
    8.1317  -48.6199  -26.7973 C   0  0  0  0  0  0  0  0  0  0  0  0
    7.9779  -47.2573  -26.7307 C   0  0  0  0  0  0  0  0  0  0  0  0
    7.6388  -46.6981  -25.5165 C   0  0  0  0  0  0  0  0  0  0  0  0
    7.4581  -47.4992  -24.3948 C   0  0  0  0  0  0  0  0  0  0  0  0
 26 27  1  0  0  0
 27 25  1  0  0  0
 25 24  1  0  0  0
 24 23  1  0  0  0
 23 22  1  0  0  0
 22 16  1  0  0  0
 16 17  2  0  0  0
 17 11  1  0  0  0
 11 12  2  0  0  0
 12 13  1  0  0  0
 13 14  2  0  0  0
 14 15  1  0  0  0
 14  1  1  0  0  0
  1  2  2  0  0  0
  2  3  1  0  0  0
  3  4  2  0  0  0
  4  5  1  0  0  0
  5  6  2  0  0  0
  6  7  1  0  0  0
  7  8  2  0  0  0
  8 29  1  0  0  0
 29 31  1  0  0  0
 31 32  2  0  0  0
 32 33  1  0  0  0
 33 34  2  0  0  0
 34 38  1  0  0  0
 38 39  1  0  0  0
 39 40  1  0  0  0
 40 41  2  0  0  0
 41 42  1  0  0  0
 42 43  2  0  0  0
 43 44  1  0  0  0
 44 45  2  0  0  0
 34 35  1  0  0  0
 35 36  1  0  0  0
 35 37  2  0  0  0
  8  9  1  0  0  0
  9 10  2  0  0  0
 16 18  1  0  0  0
 18 19  1  0  0  0
 18 20  2  0  0  0
 15 11  1  0  0  0
 10  1  1  0  0  0
  9  4  1  0  0  0
 37 31  1  0  0  0
 45 40  1  0  0  0
 26 28  1  0  0  0
 29 30  1  0  0  0
 19 21  1  0  0  0
M  END
> <minimizedAffinity>
-7.70111

> <CNNscore>
0.1093416512

> <CNNaffinity>
6.7066659927

> <CNN_VS>
0.7333179116

> <CNNaffinity_variance>
0.9927068949

$$$$
[H]OC(=O)/C(=C(/[H])c1oc(-c2c([H])c([H])c3nc([H])nc(N([H])c4c([H])c([H])c(OC([H])([H])c5c([H])c([H])c([H])c([H])c5[H])c(Cl)c4[H])c3c2[H])c([H])c1[H])C([H])([H])C([H])([H])C([H])([H])C([H])([H])C([H])([H])S[H]


 45 49  0  0  0  0  0  0  0  0999 V2000
   -0.3273  -52.8350  -21.1113 C   0  0  0  0  0  0  0  0  0  0  0  0
   -0.7472  -53.3068  -19.8980 C   0  0  0  0  0  0  0  0  0  0  0  0
   -0.5648  -52.6457  -18.7171 C   0  0  0  0  0  0  0  0  0  0  0  0
    0.0872  -51.4202  -18.7499 C   0  0  0  0  0  0  0  0  0  0  0  0
    0.3094  -50.7479  -17.6057 N   0  0  0  0  0  0  0  0  0  0  0  0
    0.9555  -49.5751  -17.6299 C   0  0  0  0  0  0  0  0  0  0  0  0
    1.3978  -49.0399  -18.8070 N   0  0  0  0  0  0  0  0  0  0  0  0
    1.2107  -49.6550  -19.9890 C   0  0  0  0  0  0  0  0  0  0  0  0
    0.5421  -50.8758  -19.9607 C   0  0  0  0  0  0  0  0  0  0  0  0
    0.3173  -51.6084  -21.1106 C   0  0  0  0  0  0  0  0  0  0  0  0
   -0.3690  -54.1084  -24.4999 C   0  0  0  0  0  0  0  0  0  0  0  0
   -1.1533  -55.0974  -23.8323 C   0  0  0  0  0  0  0  0  0  0  0  0
   -1.2215  -54.7388  -22.5098 C   0  0  0  0  0  0  0  0  0  0  0  0
   -0.5019  -53.5703  -22.3817 C   0  0  0  0  0  0  0  0  0  0  0  0
   -0.0609  -53.2942  -23.5503 O   0  0  0  0  0  0  0  0  0  0  0  0
   -0.5674  -53.4609  -26.8947 C   0  0  0  0  0  0  0  0  0  0  0  0
   -0.0883  -54.1774  -25.9235 C   0  0  0  0  0  0  0  0  0  0  0  0
   -1.5602  -52.4421  -26.6694 C   0  0  0  0  0  0  0  0  0  0  0  0
   -2.8935  -52.4869  -26.9636 O   0  0  0  0  0  0  0  0  0  0  0  0
   -1.1447  -51.3553  -26.1264 O   0  0  0  0  0  0  0  0  0  0  0  0
   -3.6538  -52.1561  -26.3791 H   0  0  0  0  0  0  0  0  0  0  0  0
   -0.1197  -53.7152  -28.3304 C   0  0  0  0  0  0  0  0  0  0  0  0
    1.3645  -53.8364  -28.4413 C   0  0  0  0  0  0  0  0  0  0  0  0
    2.0325  -52.5376  -28.0217 C   0  0  0  0  0  0  0  0  0  0  0  0
    3.3154  -52.8418  -27.2680 C   0  0  0  0  0  0  0  0  0  0  0  0
    2.2355  -50.7823  -25.8076 S   0  0  0  0  0  0  0  0  0  0  0  0
    3.0567  -52.4302  -25.8201 C   0  0  0  0  0  0  0  0  0  0  0  0
    2.0906  -50.3802  -24.4655 H   0  0  0  0  0  0  0  0  0  0  0  0
    1.5912  -49.0735  -21.2107 N   0  0  0  0  0  0  0  0  0  0  0  0
    0.9609  -48.3682  -21.6871 H   0  0  0  0  0  0  0  0  0  0  0  0
    2.7877  -49.3396  -21.9104 C   0  0  0  0  0  0  0  0  0  0  0  0
    3.4223  -48.2841  -22.5271 C   0  0  0  0  0  0  0  0  0  0  0  0
    4.5564  -48.4451  -23.2888 C   0  0  0  0  0  0  0  0  0  0  0  0
    5.0919  -49.7098  -23.4523 C   0  0  0  0  0  0  0  0  0  0  0  0
    4.4881  -50.7851  -22.8518 C   0  0  0  0  0  0  0  0  0  0  0  0
    5.1249  -52.4151  -23.0160 Cl  0  0  0  0  0  0  0  0  0  0  0  0
    3.3370  -50.5789  -22.0844 C   0  0  0  0  0  0  0  0  0  0  0  0
    6.2446  -49.8702  -24.2477 O   0  0  0  0  0  0  0  0  0  0  0  0
    7.4993  -50.2023  -23.7868 C   0  0  0  0  0  0  0  0  0  0  0  0
    7.9494  -49.5213  -22.5550 C   0  0  0  0  0  0  0  0  0  0  0  0
    7.7746  -50.0978  -21.2951 C   0  0  0  0  0  0  0  0  0  0  0  0
    8.1643  -49.4715  -20.1401 C   0  0  0  0  0  0  0  0  0  0  0  0
    8.7539  -48.2323  -20.1762 C   0  0  0  0  0  0  0  0  0  0  0  0
    8.9410  -47.6349  -21.4051 C   0  0  0  0  0  0  0  0  0  0  0  0
    8.5417  -48.2771  -22.5716 C   0  0  0  0  0  0  0  0  0  0  0  0
 26 27  1  0  0  0
 27 25  1  0  0  0
 25 24  1  0  0  0
 24 23  1  0  0  0
 23 22  1  0  0  0
 22 16  1  0  0  0
 16 17  2  0  0  0
 17 11  1  0  0  0
 11 12  2  0  0  0
 12 13  1  0  0  0
 13 14  2  0  0  0
 14 15  1  0  0  0
 14  1  1  0  0  0
  1  2  2  0  0  0
  2  3  1  0  0  0
  3  4  2  0  0  0
  4  5  1  0  0  0
  5  6  2  0  0  0
  6  7  1  0  0  0
  7  8  2  0  0  0
  8 29  1  0  0  0
 29 31  1  0  0  0
 31 32  2  0  0  0
 32 33  1  0  0  0
 33 34  2  0  0  0
 34 38  1  0  0  0
 38 39  1  0  0  0
 39 40  1  0  0  0
 40 41  2  0  0  0
 41 42  1  0  0  0
 42 43  2  0  0  0
 43 44  1  0  0  0
 44 45  2  0  0  0
 34 35  1  0  0  0
 35 36  1  0  0  0
 35 37  2  0  0  0
  8  9  1  0  0  0
  9 10  2  0  0  0
 16 18  1  0  0  0
 18 19  1  0  0  0
 18 20  2  0  0  0
 15 11  1  0  0  0
 10  1  1  0  0  0
  9  4  1  0  0  0
 37 31  1  0  0  0
 45 40  1  0  0  0
 26 28  1  0  0  0
 29 30  1  0  0  0
 19 21  1  0  0  0
M  END
> <minimizedAffinity>
-8.28457

> <CNNscore>
0.1073753387

> <CNNaffinity>
6.7498140335

> <CNN_VS>
0.7247635722

> <CNNaffinity_variance>
1.6865224838

$$$$
[H]OC(=O)/C(=C(/[H])c1oc(-c2c([H])c([H])c3nc([H])nc(N([H])c4c([H])c([H])c(OC([H])([H])c5c([H])c([H])c([H])c([H])c5[H])c(Cl)c4[H])c3c2[H])c([H])c1[H])C([H])([H])C([H])([H])C([H])([H])C([H])([H])C([H])([H])S[H]


 45 49  0  0  0  0  0  0  0  0999 V2000
    0.0974  -53.2952  -23.7767 C   0  0  0  0  0  0  0  0  0  0  0  0
   -0.8122  -53.5566  -24.7642 C   0  0  0  0  0  0  0  0  0  0  0  0
   -0.5014  -53.6143  -26.0927 C   0  0  0  0  0  0  0  0  0  0  0  0
    0.8184  -53.3938  -26.4637 C   0  0  0  0  0  0  0  0  0  0  0  0
    1.1623  -53.4171  -27.7644 N   0  0  0  0  0  0  0  0  0  0  0  0
    2.4300  -53.1851  -28.1286 C   0  0  0  0  0  0  0  0  0  0  0  0
    3.3933  -52.9236  -27.1953 N   0  0  0  0  0  0  0  0  0  0  0  0
    3.1230  -52.8852  -25.8778 C   0  0  0  0  0  0  0  0  0  0  0  0
    1.8037  -53.1229  -25.5020 C   0  0  0  0  0  0  0  0  0  0  0  0
    1.4061  -53.0824  -24.1792 C   0  0  0  0  0  0  0  0  0  0  0  0
   -0.2560  -52.5731  -20.2469 C   0  0  0  0  0  0  0  0  0  0  0  0
   -1.2255  -53.6092  -20.4069 C   0  0  0  0  0  0  0  0  0  0  0  0
   -1.2043  -53.9870  -21.7255 C   0  0  0  0  0  0  0  0  0  0  0  0
   -0.2523  -53.2048  -22.3433 C   0  0  0  0  0  0  0  0  0  0  0  0
    0.2256  -52.4419  -21.4344 O   0  0  0  0  0  0  0  0  0  0  0  0
    1.0466  -51.3187  -18.5370 C   0  0  0  0  0  0  0  0  0  0  0  0
   -0.0141  -51.9334  -18.9653 C   0  0  0  0  0  0  0  0  0  0  0  0
    2.2419  -51.2205  -19.3344 C   0  0  0  0  0  0  0  0  0  0  0  0
    2.3799  -50.6772  -20.5803 O   0  0  0  0  0  0  0  0  0  0  0  0
    3.3120  -51.7034  -18.8144 O   0  0  0  0  0  0  0  0  0  0  0  0
    3.1400  -50.0878  -20.9028 H   0  0  0  0  0  0  0  0  0  0  0  0
    1.0720  -50.7153  -17.1364 C   0  0  0  0  0  0  0  0  0  0  0  0
    0.2726  -49.4567  -17.0540 C   0  0  0  0  0  0  0  0  0  0  0  0
   -0.5963  -49.4646  -15.8074 C   0  0  0  0  0  0  0  0  0  0  0  0
   -1.1495  -50.8602  -15.5777 C   0  0  0  0  0  0  0  0  0  0  0  0
    0.3622  -52.1730  -13.6983 S   0  0  0  0  0  0  0  0  0  0  0  0
   -1.0821  -51.0931  -14.0697 C   0  0  0  0  0  0  0  0  0  0  0  0
    0.3520  -52.4510  -12.3176 H   0  0  0  0  0  0  0  0  0  0  0  0
    4.1225  -52.6965  -24.9078 N   0  0  0  0  0  0  0  0  0  0  0  0
    4.7540  -53.4989  -24.6268 H   0  0  0  0  0  0  0  0  0  0  0  0
    4.3931  -51.4881  -24.2305 C   0  0  0  0  0  0  0  0  0  0  0  0
    5.2712  -51.5262  -23.1700 C   0  0  0  0  0  0  0  0  0  0  0  0
    5.5528  -50.4200  -22.4022 C   0  0  0  0  0  0  0  0  0  0  0  0
    4.9377  -49.2159  -22.6929 C   0  0  0  0  0  0  0  0  0  0  0  0
    4.0584  -49.1392  -23.7429 C   0  0  0  0  0  0  0  0  0  0  0  0
    3.2512  -47.6364  -24.1664 Cl  0  0  0  0  0  0  0  0  0  0  0  0
    3.7999  -50.2867  -24.4999 C   0  0  0  0  0  0  0  0  0  0  0  0
    5.2179  -48.0903  -21.8919 O   0  0  0  0  0  0  0  0  0  0  0  0
    6.4489  -47.4876  -21.7551 C   0  0  0  0  0  0  0  0  0  0  0  0
    7.1133  -47.0573  -23.0029 C   0  0  0  0  0  0  0  0  0  0  0  0
    8.2972  -47.6524  -23.4438 C   0  0  0  0  0  0  0  0  0  0  0  0
    8.9401  -47.2514  -24.5858 C   0  0  0  0  0  0  0  0  0  0  0  0
    8.4364  -46.2327  -25.3559 C   0  0  0  0  0  0  0  0  0  0  0  0
    7.2682  -45.6235  -24.9483 C   0  0  0  0  0  0  0  0  0  0  0  0
    6.6232  -46.0361  -23.7879 C   0  0  0  0  0  0  0  0  0  0  0  0
 26 27  1  0  0  0
 27 25  1  0  0  0
 25 24  1  0  0  0
 24 23  1  0  0  0
 23 22  1  0  0  0
 22 16  1  0  0  0
 16 17  2  0  0  0
 17 11  1  0  0  0
 11 12  2  0  0  0
 12 13  1  0  0  0
 13 14  2  0  0  0
 14 15  1  0  0  0
 14  1  1  0  0  0
  1  2  2  0  0  0
  2  3  1  0  0  0
  3  4  2  0  0  0
  4  5  1  0  0  0
  5  6  2  0  0  0
  6  7  1  0  0  0
  7  8  2  0  0  0
  8 29  1  0  0  0
 29 31  1  0  0  0
 31 32  2  0  0  0
 32 33  1  0  0  0
 33 34  2  0  0  0
 34 38  1  0  0  0
 38 39  1  0  0  0
 39 40  1  0  0  0
 40 41  2  0  0  0
 41 42  1  0  0  0
 42 43  2  0  0  0
 43 44  1  0  0  0
 44 45  2  0  0  0
 34 35  1  0  0  0
 35 36  1  0  0  0
 35 37  2  0  0  0
  8  9  1  0  0  0
  9 10  2  0  0  0
 16 18  1  0  0  0
 18 19  1  0  0  0
 18 20  2  0  0  0
 15 11  1  0  0  0
 10  1  1  0  0  0
  9  4  1  0  0  0
 37 31  1  0  0  0
 45 40  1  0  0  0
 26 28  1  0  0  0
 29 30  1  0  0  0
 19 21  1  0  0  0
M  END
> <minimizedAffinity>
-7.25831

> <CNNscore>
0.0973317176

> <CNNaffinity>
6.7186059952

> <CNN_VS>
0.6539334655

> <CNNaffinity_variance>
0.6993179321

$$$$
[H]OC(=O)/C(=C(/[H])c1oc(-c2c([H])c([H])c3nc([H])nc(N([H])c4c([H])c([H])c(OC([H])([H])c5c([H])c([H])c([H])c([H])c5[H])c(Cl)c4[H])c3c2[H])c([H])c1[H])C([H])([H])C([H])([H])C([H])([H])C([H])([H])C([H])([H])S[H]


 45 49  0  0  0  0  0  0  0  0999 V2000
    0.3555  -53.1938  -23.6133 C   0  0  0  0  0  0  0  0  0  0  0  0
   -0.3278  -54.1850  -24.2626 C   0  0  0  0  0  0  0  0  0  0  0  0
   -0.1772  -54.4736  -25.5889 C   0  0  0  0  0  0  0  0  0  0  0  0
    0.7240  -53.7142  -26.3230 C   0  0  0  0  0  0  0  0  0  0  0  0
    0.8842  -53.9495  -27.6382 N   0  0  0  0  0  0  0  0  0  0  0  0
    1.7374  -53.2066  -28.3549 C   0  0  0  0  0  0  0  0  0  0  0  0
    2.4585  -52.2034  -27.7708 N   0  0  0  0  0  0  0  0  0  0  0  0
    2.3508  -51.9120  -26.4616 C   0  0  0  0  0  0  0  0  0  0  0  0
    1.4604  -52.6833  -25.7196 C   0  0  0  0  0  0  0  0  0  0  0  0
    1.2491  -52.4561  -24.3730 C   0  0  0  0  0  0  0  0  0  0  0  0
    0.1919  -51.7769  -20.2859 C   0  0  0  0  0  0  0  0  0  0  0  0
   -0.3816  -53.0644  -20.0574 C   0  0  0  0  0  0  0  0  0  0  0  0
   -0.3875  -53.7269  -21.2587 C   0  0  0  0  0  0  0  0  0  0  0  0
    0.1651  -52.8679  -22.1841 C   0  0  0  0  0  0  0  0  0  0  0  0
    0.4591  -51.7989  -21.5459 O   0  0  0  0  0  0  0  0  0  0  0  0
    1.4305  -50.2343  -18.7758 C   0  0  0  0  0  0  0  0  0  0  0  0
    0.3507  -50.8023  -19.2204 C   0  0  0  0  0  0  0  0  0  0  0  0
    2.7315  -50.5590  -19.3014 C   0  0  0  0  0  0  0  0  0  0  0  0
    3.4611  -51.6960  -19.0984 O   0  0  0  0  0  0  0  0  0  0  0  0
    3.2773  -49.6723  -20.0528 O   0  0  0  0  0  0  0  0  0  0  0  0
    3.9925  -52.2067  -19.7955 H   0  0  0  0  0  0  0  0  0  0  0  0
    1.3540  -49.2264  -17.6336 C   0  0  0  0  0  0  0  0  0  0  0  0
    2.3076  -49.5543  -16.5323 C   0  0  0  0  0  0  0  0  0  0  0  0
    3.0966  -48.3186  -16.1327 C   0  0  0  0  0  0  0  0  0  0  0  0
    3.7154  -48.5275  -14.7615 C   0  0  0  0  0  0  0  0  0  0  0  0
    3.1407  -50.3485  -12.7882 S   0  0  0  0  0  0  0  0  0  0  0  0
    3.6902  -50.0350  -14.5173 C   0  0  0  0  0  0  0  0  0  0  0  0
    3.2136  -51.7356  -12.5548 H   0  0  0  0  0  0  0  0  0  0  0  0
    3.1471  -50.9361  -25.8379 N   0  0  0  0  0  0  0  0  0  0  0  0
    3.6419  -51.1514  -24.9267 H   0  0  0  0  0  0  0  0  0  0  0  0
    3.3735  -49.6290  -26.3197 C   0  0  0  0  0  0  0  0  0  0  0  0
    4.0938  -49.4873  -27.4851 C   0  0  0  0  0  0  0  0  0  0  0  0
    4.4266  -48.2577  -28.0047 C   0  0  0  0  0  0  0  0  0  0  0  0
    4.0309  -47.1099  -27.3423 C   0  0  0  0  0  0  0  0  0  0  0  0
    3.3106  -47.2117  -26.1795 C   0  0  0  0  0  0  0  0  0  0  0  0
    2.7728  -45.7902  -25.2964 Cl  0  0  0  0  0  0  0  0  0  0  0  0
    2.9915  -48.4806  -25.6849 C   0  0  0  0  0  0  0  0  0  0  0  0
    4.3895  -45.8534  -27.8712 O   0  0  0  0  0  0  0  0  0  0  0  0
    3.5855  -45.0494  -28.6485 C   0  0  0  0  0  0  0  0  0  0  0  0
    3.0978  -45.6342  -29.9149 C   0  0  0  0  0  0  0  0  0  0  0  0
    3.9771  -46.0184  -30.9295 C   0  0  0  0  0  0  0  0  0  0  0  0
    3.5425  -46.5408  -32.1197 C   0  0  0  0  0  0  0  0  0  0  0  0
    2.2028  -46.7119  -32.3654 C   0  0  0  0  0  0  0  0  0  0  0  0
    1.3074  -46.3422  -31.3838 C   0  0  0  0  0  0  0  0  0  0  0  0
    1.7571  -45.8122  -30.1798 C   0  0  0  0  0  0  0  0  0  0  0  0
 26 27  1  0  0  0
 27 25  1  0  0  0
 25 24  1  0  0  0
 24 23  1  0  0  0
 23 22  1  0  0  0
 22 16  1  0  0  0
 16 17  2  0  0  0
 17 11  1  0  0  0
 11 12  2  0  0  0
 12 13  1  0  0  0
 13 14  2  0  0  0
 14 15  1  0  0  0
 14  1  1  0  0  0
  1  2  2  0  0  0
  2  3  1  0  0  0
  3  4  2  0  0  0
  4  5  1  0  0  0
  5  6  2  0  0  0
  6  7  1  0  0  0
  7  8  2  0  0  0
  8 29  1  0  0  0
 29 31  1  0  0  0
 31 32  2  0  0  0
 32 33  1  0  0  0
 33 34  2  0  0  0
 34 38  1  0  0  0
 38 39  1  0  0  0
 39 40  1  0  0  0
 40 41  2  0  0  0
 41 42  1  0  0  0
 42 43  2  0  0  0
 43 44  1  0  0  0
 44 45  2  0  0  0
 34 35  1  0  0  0
 35 36  1  0  0  0
 35 37  2  0  0  0
  8  9  1  0  0  0
  9 10  2  0  0  0
 16 18  1  0  0  0
 18 19  1  0  0  0
 18 20  2  0  0  0
 15 11  1  0  0  0
 10  1  1  0  0  0
  9  4  1  0  0  0
 37 31  1  0  0  0
 45 40  1  0  0  0
 26 28  1  0  0  0
 29 30  1  0  0  0
 19 21  1  0  0  0
M  END
> <minimizedAffinity>
-7.56316

> <CNNscore>
0.0899243504

> <CNNaffinity>
6.7745447159

> <CNN_VS>
0.6091965437

> <CNNaffinity_variance>
0.4816232622

$$$$
[H]OC(=O)/C(=C(/[H])c1oc(-c2c([H])c([H])c3nc([H])nc(N([H])c4c([H])c([H])c(OC([H])([H])c5c([H])c([H])c([H])c([H])c5[H])c(Cl)c4[H])c3c2[H])c([H])c1[H])C([H])([H])C([H])([H])C([H])([H])C([H])([H])C([H])([H])S[H]


 45 49  0  0  0  0  0  0  0  0999 V2000
    0.1503  -53.3372  -23.4877 C   0  0  0  0  0  0  0  0  0  0  0  0
   -0.6854  -53.6533  -24.5234 C   0  0  0  0  0  0  0  0  0  0  0  0
   -0.2961  -53.7002  -25.8315 C   0  0  0  0  0  0  0  0  0  0  0  0
    1.0286  -53.4087  -26.1283 C   0  0  0  0  0  0  0  0  0  0  0  0
    1.4474  -53.4191  -27.4070 N   0  0  0  0  0  0  0  0  0  0  0  0
    2.7192  -53.1190  -27.7002 C   0  0  0  0  0  0  0  0  0  0  0  0
    3.6115  -52.8001  -26.7156 N   0  0  0  0  0  0  0  0  0  0  0  0
    3.2643  -52.7703  -25.4160 C   0  0  0  0  0  0  0  0  0  0  0  0
    1.9407  -53.0790  -25.1142 C   0  0  0  0  0  0  0  0  0  0  0  0
    1.4663  -53.0543  -23.8166 C   0  0  0  0  0  0  0  0  0  0  0  0
   -0.4110  -52.6520  -19.9775 C   0  0  0  0  0  0  0  0  0  0  0  0
   -1.3797  -53.6752  -20.2091 C   0  0  0  0  0  0  0  0  0  0  0  0
   -1.2818  -54.0379  -21.5285 C   0  0  0  0  0  0  0  0  0  0  0  0
   -0.2855  -53.2595  -22.0774 C   0  0  0  0  0  0  0  0  0  0  0  0
    0.1438  -52.5125  -21.1317 O   0  0  0  0  0  0  0  0  0  0  0  0
    0.7323  -51.2927  -18.2342 C   0  0  0  0  0  0  0  0  0  0  0  0
   -0.2413  -52.0299  -18.6758 C   0  0  0  0  0  0  0  0  0  0  0  0
    1.8935  -51.0069  -19.0368 C   0  0  0  0  0  0  0  0  0  0  0  0
    1.9774  -50.2043  -20.1392 O   0  0  0  0  0  0  0  0  0  0  0  0
    2.9866  -51.5758  -18.6762 O   0  0  0  0  0  0  0  0  0  0  0  0
    2.7205  -49.5481  -20.3550 H   0  0  0  0  0  0  0  0  0  0  0  0
    0.6939  -50.7399  -16.8132 C   0  0  0  0  0  0  0  0  0  0  0  0
   -0.6969  -50.4191  -16.3743 C   0  0  0  0  0  0  0  0  0  0  0  0
   -0.7940  -50.4599  -14.8583 C   0  0  0  0  0  0  0  0  0  0  0  0
   -1.9592  -51.3413  -14.4435 C   0  0  0  0  0  0  0  0  0  0  0  0
   -3.9939  -49.5189  -14.7251 S   0  0  0  0  0  0  0  0  0  0  0  0
   -3.1063  -50.9893  -15.3885 C   0  0  0  0  0  0  0  0  0  0  0  0
   -5.1011  -49.2682  -15.5589 H   0  0  0  0  0  0  0  0  0  0  0  0
    4.1946  -52.5219  -24.3921 N   0  0  0  0  0  0  0  0  0  0  0  0
    4.6048  -53.3241  -23.8354 H   0  0  0  0  0  0  0  0  0  0  0  0
    4.6696  -51.2509  -24.0036 C   0  0  0  0  0  0  0  0  0  0  0  0
    3.8128  -50.4278  -23.3067 C   0  0  0  0  0  0  0  0  0  0  0  0
    4.1528  -49.1466  -22.9390 C   0  0  0  0  0  0  0  0  0  0  0  0
    5.3991  -48.6506  -23.2757 C   0  0  0  0  0  0  0  0  0  0  0  0
    6.2799  -49.4419  -23.9682 C   0  0  0  0  0  0  0  0  0  0  0  0
    7.8803  -48.8712  -24.4181 Cl  0  0  0  0  0  0  0  0  0  0  0  0
    5.8962  -50.7395  -24.3224 C   0  0  0  0  0  0  0  0  0  0  0  0
    5.7350  -47.3311  -22.9105 O   0  0  0  0  0  0  0  0  0  0  0  0
    5.7268  -46.2383  -23.7489 C   0  0  0  0  0  0  0  0  0  0  0  0
    4.4507  -45.9434  -24.4332 C   0  0  0  0  0  0  0  0  0  0  0  0
    3.4010  -45.2975  -23.7767 C   0  0  0  0  0  0  0  0  0  0  0  0
    2.2023  -45.0364  -24.3875 C   0  0  0  0  0  0  0  0  0  0  0  0
    1.9826  -45.4037  -25.6918 C   0  0  0  0  0  0  0  0  0  0  0  0
    2.9993  -46.0439  -26.3690 C   0  0  0  0  0  0  0  0  0  0  0  0
    4.2117  -46.3057  -25.7413 C   0  0  0  0  0  0  0  0  0  0  0  0
 26 27  1  0  0  0
 27 25  1  0  0  0
 25 24  1  0  0  0
 24 23  1  0  0  0
 23 22  1  0  0  0
 22 16  1  0  0  0
 16 17  2  0  0  0
 17 11  1  0  0  0
 11 12  2  0  0  0
 12 13  1  0  0  0
 13 14  2  0  0  0
 14 15  1  0  0  0
 14  1  1  0  0  0
  1  2  2  0  0  0
  2  3  1  0  0  0
  3  4  2  0  0  0
  4  5  1  0  0  0
  5  6  2  0  0  0
  6  7  1  0  0  0
  7  8  2  0  0  0
  8 29  1  0  0  0
 29 31  1  0  0  0
 31 32  2  0  0  0
 32 33  1  0  0  0
 33 34  2  0  0  0
 34 38  1  0  0  0
 38 39  1  0  0  0
 39 40  1  0  0  0
 40 41  2  0  0  0
 41 42  1  0  0  0
 42 43  2  0  0  0
 43 44  1  0  0  0
 44 45  2  0  0  0
 34 35  1  0  0  0
 35 36  1  0  0  0
 35 37  2  0  0  0
  8  9  1  0  0  0
  9 10  2  0  0  0
 16 18  1  0  0  0
 18 19  1  0  0  0
 18 20  2  0  0  0
 15 11  1  0  0  0
 10  1  1  0  0  0
  9  4  1  0  0  0
 37 31  1  0  0  0
 45 40  1  0  0  0
 26 28  1  0  0  0
 29 30  1  0  0  0
 19 21  1  0  0  0
M  END
> <minimizedAffinity>
-7.64106

> <CNNscore>
0.0678725466

> <CNNaffinity>
6.7767782211

> <CNN_VS>
0.4599571824

> <CNNaffinity_variance>
0.5593122244

$$$$
[H]OC(=O)/C(=C(/[H])c1oc(-c2c([H])c([H])c3nc([H])nc(N([H])c4c([H])c([H])c(OC([H])([H])c5c([H])c([H])c([H])c([H])c5[H])c(Cl)c4[H])c3c2[H])c([H])c1[H])C([H])([H])C([H])([H])C([H])([H])C([H])([H])C([H])([H])S[H]


 45 49  0  0  0  0  0  0  0  0999 V2000
   -0.1462  -53.7662  -23.6218 C   0  0  0  0  0  0  0  0  0  0  0  0
   -0.5382  -54.8878  -24.2994 C   0  0  0  0  0  0  0  0  0  0  0  0
   -0.2746  -55.1130  -25.6203 C   0  0  0  0  0  0  0  0  0  0  0  0
    0.4339  -54.1441  -26.3181 C   0  0  0  0  0  0  0  0  0  0  0  0
    0.6931  -54.3154  -27.6274 N   0  0  0  0  0  0  0  0  0  0  0  0
    1.3587  -53.3746  -28.3095 C   0  0  0  0  0  0  0  0  0  0  0  0
    1.7866  -52.2311  -27.6956 N   0  0  0  0  0  0  0  0  0  0  0  0
    1.5644  -51.9923  -26.3902 C   0  0  0  0  0  0  0  0  0  0  0  0
    0.8690  -52.9701  -25.6842 C   0  0  0  0  0  0  0  0  0  0  0  0
    0.5613  -52.8198  -24.3455 C   0  0  0  0  0  0  0  0  0  0  0  0
   -0.3526  -52.7237  -20.1611 C   0  0  0  0  0  0  0  0  0  0  0  0
   -1.4523  -53.6317  -20.2335 C   0  0  0  0  0  0  0  0  0  0  0  0
   -1.4992  -54.1132  -21.5172 C   0  0  0  0  0  0  0  0  0  0  0  0
   -0.4611  -53.5160  -22.1994 C   0  0  0  0  0  0  0  0  0  0  0  0
    0.1256  -52.7529  -21.3569 O   0  0  0  0  0  0  0  0  0  0  0  0
    1.0765  -51.3819  -18.6278 C   0  0  0  0  0  0  0  0  0  0  0  0
   -0.0108  -52.0213  -18.9363 C   0  0  0  0  0  0  0  0  0  0  0  0
    2.2009  -51.3175  -19.5254 C   0  0  0  0  0  0  0  0  0  0  0  0
    2.2439  -50.7864  -20.7834 O   0  0  0  0  0  0  0  0  0  0  0  0
    3.3004  -51.8219  -19.0947 O   0  0  0  0  0  0  0  0  0  0  0  0
    2.9868  -50.2173  -21.1751 H   0  0  0  0  0  0  0  0  0  0  0  0
    1.2127  -50.7109  -17.2648 C   0  0  0  0  0  0  0  0  0  0  0  0
    0.6493  -49.3281  -17.2624 C   0  0  0  0  0  0  0  0  0  0  0  0
   -0.1397  -49.0824  -15.9871 C   0  0  0  0  0  0  0  0  0  0  0  0
   -1.1701  -50.1828  -15.8025 C   0  0  0  0  0  0  0  0  0  0  0  0
   -2.6902  -48.0390  -15.0061 S   0  0  0  0  0  0  0  0  0  0  0  0
   -2.0605  -49.7314  -14.6465 C   0  0  0  0  0  0  0  0  0  0  0  0
   -3.4310  -47.6057  -13.8893 H   0  0  0  0  0  0  0  0  0  0  0  0
    2.0705  -50.8570  -25.7341 N   0  0  0  0  0  0  0  0  0  0  0  0
    1.4271  -50.0563  -25.4767 H   0  0  0  0  0  0  0  0  0  0  0  0
    3.4161  -50.6562  -25.3585 C   0  0  0  0  0  0  0  0  0  0  0  0
    4.0791  -51.7006  -24.7528 C   0  0  0  0  0  0  0  0  0  0  0  0
    5.3693  -51.5887  -24.2888 C   0  0  0  0  0  0  0  0  0  0  0  0
    6.0400  -50.3871  -24.4274 C   0  0  0  0  0  0  0  0  0  0  0  0
    5.4125  -49.3251  -25.0272 C   0  0  0  0  0  0  0  0  0  0  0  0
    6.2145  -47.7754  -25.2391 Cl  0  0  0  0  0  0  0  0  0  0  0  0
    4.1004  -49.4801  -25.4865 C   0  0  0  0  0  0  0  0  0  0  0  0
    7.3559  -50.2742  -23.9349 O   0  0  0  0  0  0  0  0  0  0  0  0
    7.7192  -50.2692  -22.6063 C   0  0  0  0  0  0  0  0  0  0  0  0
    6.9572  -49.3660  -21.7191 C   0  0  0  0  0  0  0  0  0  0  0  0
    6.0018  -49.8538  -20.8250 C   0  0  0  0  0  0  0  0  0  0  0  0
    5.2690  -49.0300  -20.0110 C   0  0  0  0  0  0  0  0  0  0  0  0
    5.4493  -47.6694  -20.0413 C   0  0  0  0  0  0  0  0  0  0  0  0
    6.3854  -47.1550  -20.9137 C   0  0  0  0  0  0  0  0  0  0  0  0
    7.1236  -47.9981  -21.7364 C   0  0  0  0  0  0  0  0  0  0  0  0
 26 27  1  0  0  0
 27 25  1  0  0  0
 25 24  1  0  0  0
 24 23  1  0  0  0
 23 22  1  0  0  0
 22 16  1  0  0  0
 16 17  2  0  0  0
 17 11  1  0  0  0
 11 12  2  0  0  0
 12 13  1  0  0  0
 13 14  2  0  0  0
 14 15  1  0  0  0
 14  1  1  0  0  0
  1  2  2  0  0  0
  2  3  1  0  0  0
  3  4  2  0  0  0
  4  5  1  0  0  0
  5  6  2  0  0  0
  6  7  1  0  0  0
  7  8  2  0  0  0
  8 29  1  0  0  0
 29 31  1  0  0  0
 31 32  2  0  0  0
 32 33  1  0  0  0
 33 34  2  0  0  0
 34 38  1  0  0  0
 38 39  1  0  0  0
 39 40  1  0  0  0
 40 41  2  0  0  0
 41 42  1  0  0  0
 42 43  2  0  0  0
 43 44  1  0  0  0
 44 45  2  0  0  0
 34 35  1  0  0  0
 35 36  1  0  0  0
 35 37  2  0  0  0
  8  9  1  0  0  0
  9 10  2  0  0  0
 16 18  1  0  0  0
 18 19  1  0  0  0
 18 20  2  0  0  0
 15 11  1  0  0  0
 10  1  1  0  0  0
  9  4  1  0  0  0
 37 31  1  0  0  0
 45 40  1  0  0  0
 26 28  1  0  0  0
 29 30  1  0  0  0
 19 21  1  0  0  0
M  END
> <minimizedAffinity>
-7.85967

> <CNNscore>
0.0622827783

> <CNNaffinity>
6.5771484375

> <CNN_VS>
0.4096430838

> <CNNaffinity_variance>
0.9992138147

$$$$
[H]/C(C(=O)N([H])c1c(OC([H])([H])[H])c([H])c2nc([H])nc(N([H])c3c([H])c([H])c(F)c(Cl)c3[H])c2c1[H])=C(/[H])C([H])([H])N1C([H])([H])C([H])([H])C([H])([H])C1([H])[H]


 34 37  0  0  0  0  0  0  0  0999 V2000
   -0.0906  -52.3050  -19.4396 C   0  0  0  0  0  0  0  0  0  0  0  0
   -0.8355  -53.3645  -19.8807 C   0  0  0  0  0  0  0  0  0  0  0  0
   -0.8081  -53.7209  -21.2113 C   0  0  0  0  0  0  0  0  0  0  0  0
   -1.5302  -54.7613  -21.6736 N   0  0  0  0  0  0  0  0  0  0  0  0
   -1.5207  -55.1300  -22.9617 C   0  0  0  0  0  0  0  0  0  0  0  0
   -0.7626  -54.4311  -23.8063 N   0  0  0  0  0  0  0  0  0  0  0  0
    0.0036  -53.3776  -23.4867 C   0  0  0  0  0  0  0  0  0  0  0  0
   -0.0353  -53.0261  -22.1313 C   0  0  0  0  0  0  0  0  0  0  0  0
    0.7118  -51.9639  -21.6902 C   0  0  0  0  0  0  0  0  0  0  0  0
    0.6988  -51.5900  -20.3611 C   0  0  0  0  0  0  0  0  0  0  0  0
    1.4415  -50.5172  -19.8569 N   0  0  0  0  0  0  0  0  0  0  0  0
    2.7442  -50.5392  -19.3137 C   0  0  0  0  0  0  0  0  0  0  0  0
    3.4413  -51.5539  -19.2035 O   0  0  0  0  0  0  0  0  0  0  0  0
    0.9465  -49.5445  -19.8901 H   0  0  0  0  0  0  0  0  0  0  0  0
    3.3633  -49.2782  -18.8267 C   0  0  0  0  0  0  0  0  0  0  0  0
    2.7651  -48.4613  -18.0098 C   0  0  0  0  0  0  0  0  0  0  0  0
    3.3775  -47.2225  -17.5336 C   0  0  0  0  0  0  0  0  0  0  0  0
    2.9030  -46.8041  -16.2377 N   0  0  0  0  0  0  0  0  0  0  0  0
    3.8556  -45.9538  -15.5562 C   0  0  0  0  0  0  0  0  0  0  0  0
    4.6043  -46.7863  -14.5708 C   0  0  0  0  0  0  0  0  0  0  0  0
    4.0127  -48.1527  -14.6391 C   0  0  0  0  0  0  0  0  0  0  0  0
    2.7437  -47.9807  -15.4096 C   0  0  0  0  0  0  0  0  0  0  0  0
   -1.0870  -52.5508  -17.2665 C   0  0  0  0  0  0  0  0  0  0  0  0
   -0.1126  -51.9327  -18.0782 O   0  0  0  0  0  0  0  0  0  0  0  0
    0.7432  -52.6777  -24.4557 N   0  0  0  0  0  0  0  0  0  0  0  0
    1.5986  -52.0970  -24.2210 H   0  0  0  0  0  0  0  0  0  0  0  0
    0.4005  -52.6904  -25.8404 C   0  0  0  0  0  0  0  0  0  0  0  0
    1.4407  -52.8733  -26.7746 C   0  0  0  0  0  0  0  0  0  0  0  0
    1.2503  -52.9368  -28.1259 C   0  0  0  0  0  0  0  0  0  0  0  0
   -0.0415  -52.8128  -28.5894 C   0  0  0  0  0  0  0  0  0  0  0  0
   -0.2999  -52.8675  -29.9375 F   0  0  0  0  0  0  0  0  0  0  0  0
   -1.0916  -52.6337  -27.7280 C   0  0  0  0  0  0  0  0  0  0  0  0
   -2.7466  -52.4707  -28.2616 Cl  0  0  0  0  0  0  0  0  0  0  0  0
   -0.8633  -52.5737  -26.3504 C   0  0  0  0  0  0  0  0  0  0  0  0
 23 24  1  0  0  0
 24  1  1  0  0  0
  1  2  2  0  0  0
  2  3  1  0  0  0
  3  4  2  0  0  0
  4  5  1  0  0  0
  5  6  2  0  0  0
  6  7  1  0  0  0
  7 25  1  0  0  0
 25 27  1  0  0  0
 27 28  2  0  0  0
 28 29  1  0  0  0
 29 30  2  0  0  0
 30 31  1  0  0  0
 30 32  1  0  0  0
 32 33  1  0  0  0
 32 34  2  0  0  0
  7  8  2  0  0  0
  8  9  1  0  0  0
  9 10  2  0  0  0
 10 11  1  0  0  0
 11 12  1  0  0  0
 12 13  2  0  0  0
 12 15  1  0  0  0
 15 16  2  0  0  0
 16 17  1  0  0  0
 17 18  1  0  0  0
 18 19  1  0  0  0
 19 20  1  0  0  0
 20 21  1  0  0  0
 21 22  1  0  0  0
 10  1  1  0  0  0
 22 18  1  0  0  0
  8  3  1  0  0  0
 34 27  1  0  0  0
 25 26  1  0  0  0
 11 14  1  0  0  0
M  END
> <minimizedAffinity>
-8.36164

> <CNNscore>
0.9638077617

> <CNNaffinity>
7.6048269272

> <CNN_VS>
7.3295912743

> <CNNaffinity_variance>
0.1077711731

$$$$
[H]/C(C(=O)N([H])c1c(OC([H])([H])[H])c([H])c2nc([H])nc(N([H])c3c([H])c([H])c(F)c(Cl)c3[H])c2c1[H])=C(/[H])C([H])([H])N1C([H])([H])C([H])([H])C([H])([H])C1([H])[H]


 34 37  0  0  0  0  0  0  0  0999 V2000
    0.1796  -52.1753  -19.4191 C   0  0  0  0  0  0  0  0  0  0  0  0
   -0.6011  -53.2319  -19.8015 C   0  0  0  0  0  0  0  0  0  0  0  0
   -0.6558  -53.6055  -21.1265 C   0  0  0  0  0  0  0  0  0  0  0  0
   -1.4148  -54.6435  -21.5316 N   0  0  0  0  0  0  0  0  0  0  0  0
   -1.4849  -55.0288  -22.8129 C   0  0  0  0  0  0  0  0  0  0  0  0
   -0.7704  -54.3494  -23.7099 N   0  0  0  0  0  0  0  0  0  0  0  0
    0.0244  -53.3007  -23.4500 C   0  0  0  0  0  0  0  0  0  0  0  0
    0.0688  -52.9314  -22.0995 C   0  0  0  0  0  0  0  0  0  0  0  0
    0.8518  -51.8722  -21.7173 C   0  0  0  0  0  0  0  0  0  0  0  0
    0.9209  -51.4811  -20.3949 C   0  0  0  0  0  0  0  0  0  0  0  0
    1.7033  -50.4104  -19.9496 N   0  0  0  0  0  0  0  0  0  0  0  0
    1.5538  -49.0391  -20.2496 C   0  0  0  0  0  0  0  0  0  0  0  0
    0.6718  -48.5726  -20.9790 O   0  0  0  0  0  0  0  0  0  0  0  0
    2.5310  -50.6746  -19.2884 H   0  0  0  0  0  0  0  0  0  0  0  0
    2.4997  -48.0486  -19.6709 C   0  0  0  0  0  0  0  0  0  0  0  0
    3.6151  -47.7090  -20.2479 C   0  0  0  0  0  0  0  0  0  0  0  0
    4.5423  -46.7348  -19.6752 C   0  0  0  0  0  0  0  0  0  0  0  0
    5.8529  -46.7617  -20.2762 N   0  0  0  0  0  0  0  0  0  0  0  0
    6.2461  -48.0982  -20.6685 C   0  0  0  0  0  0  0  0  0  0  0  0
    7.1537  -48.6456  -19.6191 C   0  0  0  0  0  0  0  0  0  0  0  0
    7.3450  -47.5570  -18.6190 C   0  0  0  0  0  0  0  0  0  0  0  0
    6.8165  -46.3288  -19.2866 C   0  0  0  0  0  0  0  0  0  0  0  0
   -0.8302  -52.1855  -17.2383 C   0  0  0  0  0  0  0  0  0  0  0  0
    0.2416  -51.7853  -18.0640 O   0  0  0  0  0  0  0  0  0  0  0  0
    0.7130  -52.6217  -24.4700 N   0  0  0  0  0  0  0  0  0  0  0  0
    1.5679  -52.0213  -24.2889 H   0  0  0  0  0  0  0  0  0  0  0  0
    0.3148  -52.6838  -25.8384 C   0  0  0  0  0  0  0  0  0  0  0  0
    1.3061  -52.9670  -26.8005 C   0  0  0  0  0  0  0  0  0  0  0  0
    1.0586  -53.0862  -28.1387 C   0  0  0  0  0  0  0  0  0  0  0  0
   -0.2427  -52.9168  -28.5592 C   0  0  0  0  0  0  0  0  0  0  0  0
   -0.5575  -53.0235  -29.8921 F   0  0  0  0  0  0  0  0  0  0  0  0
   -1.2469  -52.6404  -27.6692 C   0  0  0  0  0  0  0  0  0  0  0  0
   -2.9115  -52.4163  -28.1479 Cl  0  0  0  0  0  0  0  0  0  0  0  0
   -0.9608  -52.5253  -26.3060 C   0  0  0  0  0  0  0  0  0  0  0  0
 23 24  1  0  0  0
 24  1  1  0  0  0
  1  2  2  0  0  0
  2  3  1  0  0  0
  3  4  2  0  0  0
  4  5  1  0  0  0
  5  6  2  0  0  0
  6  7  1  0  0  0
  7 25  1  0  0  0
 25 27  1  0  0  0
 27 28  2  0  0  0
 28 29  1  0  0  0
 29 30  2  0  0  0
 30 31  1  0  0  0
 30 32  1  0  0  0
 32 33  1  0  0  0
 32 34  2  0  0  0
  7  8  2  0  0  0
  8  9  1  0  0  0
  9 10  2  0  0  0
 10 11  1  0  0  0
 11 12  1  0  0  0
 12 13  2  0  0  0
 12 15  1  0  0  0
 15 16  2  0  0  0
 16 17  1  0  0  0
 17 18  1  0  0  0
 18 19  1  0  0  0
 19 20  1  0  0  0
 20 21  1  0  0  0
 21 22  1  0  0  0
 10  1  1  0  0  0
 22 18  1  0  0  0
  8  3  1  0  0  0
 34 27  1  0  0  0
 25 26  1  0  0  0
 11 14  1  0  0  0
M  END
> <minimizedAffinity>
-8.25910

> <CNNscore>
0.9623460770

> <CNNaffinity>
7.7374563217

> <CNN_VS>
7.4461107254

> <CNNaffinity_variance>
0.1174532771

$$$$
[H]/C(C(=O)N([H])c1c(OC([H])([H])[H])c([H])c2nc([H])nc(N([H])c3c([H])c([H])c(F)c(Cl)c3[H])c2c1[H])=C(/[H])C([H])([H])N1C([H])([H])C([H])([H])C([H])([H])C1([H])[H]


 34 37  0  0  0  0  0  0  0  0999 V2000
   -0.1063  -51.9961  -19.3756 C   0  0  0  0  0  0  0  0  0  0  0  0
   -0.6254  -53.2043  -19.7536 C   0  0  0  0  0  0  0  0  0  0  0  0
   -0.7100  -53.5314  -21.0894 C   0  0  0  0  0  0  0  0  0  0  0  0
   -1.2152  -54.7151  -21.4908 N   0  0  0  0  0  0  0  0  0  0  0  0
   -1.3075  -55.0590  -22.7824 C   0  0  0  0  0  0  0  0  0  0  0  0
   -0.8788  -54.1861  -23.6939 N   0  0  0  0  0  0  0  0  0  0  0  0
   -0.3559  -52.9774  -23.4392 C   0  0  0  0  0  0  0  0  0  0  0  0
   -0.2776  -52.6581  -22.0776 C   0  0  0  0  0  0  0  0  0  0  0  0
    0.2431  -51.4468  -21.6998 C   0  0  0  0  0  0  0  0  0  0  0  0
    0.3369  -51.0990  -20.3668 C   0  0  0  0  0  0  0  0  0  0  0  0
    0.8600  -49.8791  -19.9255 N   0  0  0  0  0  0  0  0  0  0  0  0
    2.2157  -49.4989  -19.8242 C   0  0  0  0  0  0  0  0  0  0  0  0
    3.1716  -50.2223  -20.1251 O   0  0  0  0  0  0  0  0  0  0  0  0
    0.1232  -49.1324  -19.6227 H   0  0  0  0  0  0  0  0  0  0  0  0
    2.5677  -48.1430  -19.3257 C   0  0  0  0  0  0  0  0  0  0  0  0
    3.5433  -47.4359  -19.8164 C   0  0  0  0  0  0  0  0  0  0  0  0
    3.8859  -46.1033  -19.3231 C   0  0  0  0  0  0  0  0  0  0  0  0
    5.2558  -45.7288  -19.5737 N   0  0  0  0  0  0  0  0  0  0  0  0
    6.1291  -46.8798  -19.6601 C   0  0  0  0  0  0  0  0  0  0  0  0
    6.8293  -47.0348  -18.3523 C   0  0  0  0  0  0  0  0  0  0  0  0
    6.3943  -45.8889  -17.5039 C   0  0  0  0  0  0  0  0  0  0  0  0
    5.7262  -44.9454  -18.4510 C   0  0  0  0  0  0  0  0  0  0  0  0
   -0.9181  -52.2912  -17.1329 C   0  0  0  0  0  0  0  0  0  0  0  0
   -0.0158  -51.6524  -18.0095 O   0  0  0  0  0  0  0  0  0  0  0  0
    0.0362  -52.1071  -24.4710 N   0  0  0  0  0  0  0  0  0  0  0  0
    0.4437  -51.1450  -24.2912 H   0  0  0  0  0  0  0  0  0  0  0  0
   -0.0845  -52.4482  -25.8509 C   0  0  0  0  0  0  0  0  0  0  0  0
   -1.3026  -52.1546  -26.4977 C   0  0  0  0  0  0  0  0  0  0  0  0
   -1.5424  -52.3986  -27.8202 C   0  0  0  0  0  0  0  0  0  0  0  0
   -0.5234  -52.9663  -28.5539 C   0  0  0  0  0  0  0  0  0  0  0  0
   -0.7012  -53.2373  -29.8888 F   0  0  0  0  0  0  0  0  0  0  0  0
    0.6815  -53.2726  -27.9784 C   0  0  0  0  0  0  0  0  0  0  0  0
    2.0054  -53.9926  -28.8611 Cl  0  0  0  0  0  0  0  0  0  0  0  0
    0.8954  -53.0097  -26.6224 C   0  0  0  0  0  0  0  0  0  0  0  0
 23 24  1  0  0  0
 24  1  1  0  0  0
  1  2  2  0  0  0
  2  3  1  0  0  0
  3  4  2  0  0  0
  4  5  1  0  0  0
  5  6  2  0  0  0
  6  7  1  0  0  0
  7 25  1  0  0  0
 25 27  1  0  0  0
 27 28  2  0  0  0
 28 29  1  0  0  0
 29 30  2  0  0  0
 30 31  1  0  0  0
 30 32  1  0  0  0
 32 33  1  0  0  0
 32 34  2  0  0  0
  7  8  2  0  0  0
  8  9  1  0  0  0
  9 10  2  0  0  0
 10 11  1  0  0  0
 11 12  1  0  0  0
 12 13  2  0  0  0
 12 15  1  0  0  0
 15 16  2  0  0  0
 16 17  1  0  0  0
 17 18  1  0  0  0
 18 19  1  0  0  0
 19 20  1  0  0  0
 20 21  1  0  0  0
 21 22  1  0  0  0
 10  1  1  0  0  0
 22 18  1  0  0  0
  8  3  1  0  0  0
 34 27  1  0  0  0
 25 26  1  0  0  0
 11 14  1  0  0  0
M  END
> <minimizedAffinity>
-7.81497

> <CNNscore>
0.8676273227

> <CNNaffinity>
7.4475049973

> <CNN_VS>
6.4616589546

> <CNNaffinity_variance>
0.2298338413

$$$$
[H]/C(C(=O)N([H])c1c(OC([H])([H])[H])c([H])c2nc([H])nc(N([H])c3c([H])c([H])c(F)c(Cl)c3[H])c2c1[H])=C(/[H])C([H])([H])N1C([H])([H])C([H])([H])C([H])([H])C1([H])[H]


 34 37  0  0  0  0  0  0  0  0999 V2000
   -0.5775  -52.8435  -19.5221 C   0  0  0  0  0  0  0  0  0  0  0  0
   -1.0107  -53.9298  -20.2321 C   0  0  0  0  0  0  0  0  0  0  0  0
   -0.8609  -53.9637  -21.6013 C   0  0  0  0  0  0  0  0  0  0  0  0
   -1.2767  -55.0216  -22.3262 N   0  0  0  0  0  0  0  0  0  0  0  0
   -1.1419  -55.0811  -23.6579 C   0  0  0  0  0  0  0  0  0  0  0  0
   -0.5725  -54.0461  -24.2754 N   0  0  0  0  0  0  0  0  0  0  0  0
   -0.1144  -52.9332  -23.6833 C   0  0  0  0  0  0  0  0  0  0  0  0
   -0.2746  -52.9122  -22.2919 C   0  0  0  0  0  0  0  0  0  0  0  0
    0.1601  -51.8228  -21.5812 C   0  0  0  0  0  0  0  0  0  0  0  0
    0.0197  -51.7684  -20.2086 C   0  0  0  0  0  0  0  0  0  0  0  0
    0.4459  -50.6841  -19.4345 N   0  0  0  0  0  0  0  0  0  0  0  0
    1.7266  -50.4557  -18.8865 C   0  0  0  0  0  0  0  0  0  0  0  0
    2.6927  -51.2148  -19.0206 O   0  0  0  0  0  0  0  0  0  0  0  0
   -0.3107  -49.9233  -19.2321 H   0  0  0  0  0  0  0  0  0  0  0  0
    1.9792  -49.2296  -18.0842 C   0  0  0  0  0  0  0  0  0  0  0  0
    2.1038  -49.2400  -16.7893 C   0  0  0  0  0  0  0  0  0  0  0  0
    2.3520  -48.0321  -16.0045 C   0  0  0  0  0  0  0  0  0  0  0  0
    1.6255  -47.9925  -14.7594 N   0  0  0  0  0  0  0  0  0  0  0  0
    0.4653  -47.1302  -14.8317 C   0  0  0  0  0  0  0  0  0  0  0  0
    0.8158  -45.8213  -14.2082 C   0  0  0  0  0  0  0  0  0  0  0  0
    2.2089  -45.9591  -13.6959 C   0  0  0  0  0  0  0  0  0  0  0  0
    2.4900  -47.4261  -13.7458 C   0  0  0  0  0  0  0  0  0  0  0  0
   -2.0154  -53.0651  -17.6093 C   0  0  0  0  0  0  0  0  0  0  0  0
   -0.7268  -52.8000  -18.1192 O   0  0  0  0  0  0  0  0  0  0  0  0
    0.4398  -51.8743  -24.4232 N   0  0  0  0  0  0  0  0  0  0  0  0
   -0.1261  -51.2820  -25.0963 H   0  0  0  0  0  0  0  0  0  0  0  0
    1.8158  -51.5097  -24.3299 C   0  0  0  0  0  0  0  0  0  0  0  0
    2.1395  -50.1387  -24.3935 C   0  0  0  0  0  0  0  0  0  0  0  0
    3.4102  -49.6490  -24.2862 C   0  0  0  0  0  0  0  0  0  0  0  0
    4.4269  -50.5615  -24.1053 C   0  0  0  0  0  0  0  0  0  0  0  0
    5.7272  -50.1334  -23.9907 F   0  0  0  0  0  0  0  0  0  0  0  0
    4.1714  -51.9056  -24.0355 C   0  0  0  0  0  0  0  0  0  0  0  0
    5.4212  -53.1041  -23.8078 Cl  0  0  0  0  0  0  0  0  0  0  0  0
    2.8596  -52.3747  -24.1483 C   0  0  0  0  0  0  0  0  0  0  0  0
 23 24  1  0  0  0
 24  1  1  0  0  0
  1  2  2  0  0  0
  2  3  1  0  0  0
  3  4  2  0  0  0
  4  5  1  0  0  0
  5  6  2  0  0  0
  6  7  1  0  0  0
  7 25  1  0  0  0
 25 27  1  0  0  0
 27 28  2  0  0  0
 28 29  1  0  0  0
 29 30  2  0  0  0
 30 31  1  0  0  0
 30 32  1  0  0  0
 32 33  1  0  0  0
 32 34  2  0  0  0
  7  8  2  0  0  0
  8  9  1  0  0  0
  9 10  2  0  0  0
 10 11  1  0  0  0
 11 12  1  0  0  0
 12 13  2  0  0  0
 12 15  1  0  0  0
 15 16  2  0  0  0
 16 17  1  0  0  0
 17 18  1  0  0  0
 18 19  1  0  0  0
 19 20  1  0  0  0
 20 21  1  0  0  0
 21 22  1  0  0  0
 10  1  1  0  0  0
 22 18  1  0  0  0
  8  3  1  0  0  0
 34 27  1  0  0  0
 25 26  1  0  0  0
 11 14  1  0  0  0
M  END
> <minimizedAffinity>
-6.77055

> <CNNscore>
0.7150330544

> <CNNaffinity>
6.9557633400

> <CNN_VS>
4.9736008644

> <CNNaffinity_variance>
0.0311995111

$$$$
[H]/C(C(=O)N([H])c1c(OC([H])([H])[H])c([H])c2nc([H])nc(N([H])c3c([H])c([H])c(F)c(Cl)c3[H])c2c1[H])=C(/[H])C([H])([H])N1C([H])([H])C([H])([H])C([H])([H])C1([H])[H]


 34 37  0  0  0  0  0  0  0  0999 V2000
    0.4345  -51.6098  -19.0612 C   0  0  0  0  0  0  0  0  0  0  0  0
   -0.2360  -52.7725  -19.3268 C   0  0  0  0  0  0  0  0  0  0  0  0
   -0.4450  -53.1662  -20.6306 C   0  0  0  0  0  0  0  0  0  0  0  0
   -1.1006  -54.3076  -20.9218 N   0  0  0  0  0  0  0  0  0  0  0  0
   -1.3161  -54.7145  -22.1800 C   0  0  0  0  0  0  0  0  0  0  0  0
   -0.8581  -53.9501  -23.1713 N   0  0  0  0  0  0  0  0  0  0  0  0
   -0.1920  -52.7946  -23.0289 C   0  0  0  0  0  0  0  0  0  0  0  0
    0.0117  -52.4064  -21.6985 C   0  0  0  0  0  0  0  0  0  0  0  0
    0.6840  -51.2408  -21.4334 C   0  0  0  0  0  0  0  0  0  0  0  0
    0.9042  -50.8278  -20.1344 C   0  0  0  0  0  0  0  0  0  0  0  0
    1.5842  -49.6501  -19.8068 N   0  0  0  0  0  0  0  0  0  0  0  0
    2.9639  -49.3783  -19.9307 C   0  0  0  0  0  0  0  0  0  0  0  0
    3.8002  -50.1778  -20.3656 O   0  0  0  0  0  0  0  0  0  0  0  0
    0.9656  -48.8449  -19.4055 H   0  0  0  0  0  0  0  0  0  0  0  0
    3.4953  -48.0511  -19.5222 C   0  0  0  0  0  0  0  0  0  0  0  0
    3.4788  -47.0083  -20.2998 C   0  0  0  0  0  0  0  0  0  0  0  0
    4.0025  -45.7053  -19.8940 C   0  0  0  0  0  0  0  0  0  0  0  0
    4.0575  -44.7446  -20.9681 N   0  0  0  0  0  0  0  0  0  0  0  0
    3.7661  -45.3447  -22.2525 C   0  0  0  0  0  0  0  0  0  0  0  0
    5.0580  -45.6034  -22.9517 C   0  0  0  0  0  0  0  0  0  0  0  0
    6.1304  -45.0687  -22.0651 C   0  0  0  0  0  0  0  0  0  0  0  0
    5.4099  -44.2358  -21.0549 C   0  0  0  0  0  0  0  0  0  0  0  0
   -0.4895  -51.0483  -16.9150 C   0  0  0  0  0  0  0  0  0  0  0  0
    0.6532  -51.1985  -17.7288 O   0  0  0  0  0  0  0  0  0  0  0  0
    0.2214  -52.0358  -24.1375 N   0  0  0  0  0  0  0  0  0  0  0  0
    0.8291  -51.1714  -24.0514 H   0  0  0  0  0  0  0  0  0  0  0  0
   -0.1465  -52.3674  -25.4753 C   0  0  0  0  0  0  0  0  0  0  0  0
   -1.4414  -52.0157  -25.9087 C   0  0  0  0  0  0  0  0  0  0  0  0
   -1.9123  -52.2449  -27.1704 C   0  0  0  0  0  0  0  0  0  0  0  0
   -1.0594  -52.8577  -28.0626 C   0  0  0  0  0  0  0  0  0  0  0  0
   -1.4727  -53.1166  -29.3468 F   0  0  0  0  0  0  0  0  0  0  0  0
    0.2099  -53.2213  -27.6972 C   0  0  0  0  0  0  0  0  0  0  0  0
    1.3306  -54.0001  -28.7870 Cl  0  0  0  0  0  0  0  0  0  0  0  0
    0.6619  -52.9721  -26.3983 C   0  0  0  0  0  0  0  0  0  0  0  0
 23 24  1  0  0  0
 24  1  1  0  0  0
  1  2  2  0  0  0
  2  3  1  0  0  0
  3  4  2  0  0  0
  4  5  1  0  0  0
  5  6  2  0  0  0
  6  7  1  0  0  0
  7 25  1  0  0  0
 25 27  1  0  0  0
 27 28  2  0  0  0
 28 29  1  0  0  0
 29 30  2  0  0  0
 30 31  1  0  0  0
 30 32  1  0  0  0
 32 33  1  0  0  0
 32 34  2  0  0  0
  7  8  2  0  0  0
  8  9  1  0  0  0
  9 10  2  0  0  0
 10 11  1  0  0  0
 11 12  1  0  0  0
 12 13  2  0  0  0
 12 15  1  0  0  0
 15 16  2  0  0  0
 16 17  1  0  0  0
 17 18  1  0  0  0
 18 19  1  0  0  0
 19 20  1  0  0  0
 20 21  1  0  0  0
 21 22  1  0  0  0
 10  1  1  0  0  0
 22 18  1  0  0  0
  8  3  1  0  0  0
 34 27  1  0  0  0
 25 26  1  0  0  0
 11 14  1  0  0  0
M  END
> <minimizedAffinity>
-7.54600

> <CNNscore>
0.6771611571

> <CNNaffinity>
7.3479599953

> <CNN_VS>
4.9757533073

> <CNNaffinity_variance>
0.3222948313

$$$$
[H]/C(C(=O)N([H])c1c(OC([H])([H])[H])c([H])c2nc([H])nc(N([H])c3c([H])c([H])c(F)c(Cl)c3[H])c2c1[H])=C(/[H])C([H])([H])N1C([H])([H])C([H])([H])C([H])([H])C1([H])[H]


 34 37  0  0  0  0  0  0  0  0999 V2000
    0.6233  -52.0588  -20.2106 C   0  0  0  0  0  0  0  0  0  0  0  0
   -0.6357  -52.5467  -19.9897 C   0  0  0  0  0  0  0  0  0  0  0  0
   -1.2114  -53.4075  -20.8986 C   0  0  0  0  0  0  0  0  0  0  0  0
   -2.4495  -53.9053  -20.7059 N   0  0  0  0  0  0  0  0  0  0  0  0
   -3.0320  -54.7448  -21.5724 C   0  0  0  0  0  0  0  0  0  0  0  0
   -2.3479  -55.0921  -22.6624 N   0  0  0  0  0  0  0  0  0  0  0  0
   -1.1133  -54.6756  -22.9809 C   0  0  0  0  0  0  0  0  0  0  0  0
   -0.5415  -53.8002  -22.0489 C   0  0  0  0  0  0  0  0  0  0  0  0
    0.7207  -53.3118  -22.2712 C   0  0  0  0  0  0  0  0  0  0  0  0
    1.3161  -52.4480  -21.3734 C   0  0  0  0  0  0  0  0  0  0  0  0
    2.5999  -51.9212  -21.5492 N   0  0  0  0  0  0  0  0  0  0  0  0
    3.4245  -52.0006  -22.6922 C   0  0  0  0  0  0  0  0  0  0  0  0
    3.1133  -52.5712  -23.7435 O   0  0  0  0  0  0  0  0  0  0  0  0
    3.0098  -51.3830  -20.6922 H   0  0  0  0  0  0  0  0  0  0  0  0
    4.7704  -51.3688  -22.6779 C   0  0  0  0  0  0  0  0  0  0  0  0
    5.0585  -50.3248  -21.9571 C   0  0  0  0  0  0  0  0  0  0  0  0
    6.3830  -49.7069  -21.9462 C   0  0  0  0  0  0  0  0  0  0  0  0
    6.3644  -48.2948  -22.2383 N   0  0  0  0  0  0  0  0  0  0  0  0
    5.0813  -47.8597  -22.7473 C   0  0  0  0  0  0  0  0  0  0  0  0
    5.1769  -47.7595  -24.2324 C   0  0  0  0  0  0  0  0  0  0  0  0
    6.5885  -48.0828  -24.5857 C   0  0  0  0  0  0  0  0  0  0  0  0
    7.3272  -48.0343  -23.2874 C   0  0  0  0  0  0  0  0  0  0  0  0
    1.6596  -49.9324  -19.7860 C   0  0  0  0  0  0  0  0  0  0  0  0
    1.2209  -51.1763  -19.2851 O   0  0  0  0  0  0  0  0  0  0  0  0
   -0.4837  -55.0679  -24.1749 N   0  0  0  0  0  0  0  0  0  0  0  0
   -0.1343  -56.0540  -24.3465 H   0  0  0  0  0  0  0  0  0  0  0  0
   -0.2606  -54.1662  -25.2576 C   0  0  0  0  0  0  0  0  0  0  0  0
    1.0483  -53.6778  -25.4488 C   0  0  0  0  0  0  0  0  0  0  0  0
    1.4078  -52.8350  -26.4621 C   0  0  0  0  0  0  0  0  0  0  0  0
    0.4213  -52.4472  -27.3426 C   0  0  0  0  0  0  0  0  0  0  0  0
    0.7178  -51.6005  -28.3830 F   0  0  0  0  0  0  0  0  0  0  0  0
   -0.8677  -52.8905  -27.2061 C   0  0  0  0  0  0  0  0  0  0  0  0
   -2.1554  -52.4304  -28.2925 Cl  0  0  0  0  0  0  0  0  0  0  0  0
   -1.2031  -53.7529  -26.1586 C   0  0  0  0  0  0  0  0  0  0  0  0
 23 24  1  0  0  0
 24  1  1  0  0  0
  1  2  2  0  0  0
  2  3  1  0  0  0
  3  4  2  0  0  0
  4  5  1  0  0  0
  5  6  2  0  0  0
  6  7  1  0  0  0
  7 25  1  0  0  0
 25 27  1  0  0  0
 27 28  2  0  0  0
 28 29  1  0  0  0
 29 30  2  0  0  0
 30 31  1  0  0  0
 30 32  1  0  0  0
 32 33  1  0  0  0
 32 34  2  0  0  0
  7  8  2  0  0  0
  8  9  1  0  0  0
  9 10  2  0  0  0
 10 11  1  0  0  0
 11 12  1  0  0  0
 12 13  2  0  0  0
 12 15  1  0  0  0
 15 16  2  0  0  0
 16 17  1  0  0  0
 17 18  1  0  0  0
 18 19  1  0  0  0
 19 20  1  0  0  0
 20 21  1  0  0  0
 21 22  1  0  0  0
 10  1  1  0  0  0
 22 18  1  0  0  0
  8  3  1  0  0  0
 34 27  1  0  0  0
 25 26  1  0  0  0
 11 14  1  0  0  0
M  END
> <minimizedAffinity>
-3.35759

> <CNNscore>
0.6131315231

> <CNNaffinity>
7.2723822594

> <CNN_VS>
4.4589266777

> <CNNaffinity_variance>
0.2204248458

$$$$
[H]/C(C(=O)N([H])c1c(OC([H])([H])[H])c([H])c2nc([H])nc(N([H])c3c([H])c([H])c(F)c(Cl)c3[H])c2c1[H])=C(/[H])C([H])([H])N1C([H])([H])C([H])([H])C([H])([H])C1([H])[H]


 34 37  0  0  0  0  0  0  0  0999 V2000
   -0.3166  -52.1856  -19.2954 C   0  0  0  0  0  0  0  0  0  0  0  0
   -0.8689  -53.3384  -19.7833 C   0  0  0  0  0  0  0  0  0  0  0  0
   -0.8418  -53.5977  -21.1363 C   0  0  0  0  0  0  0  0  0  0  0  0
   -1.3764  -54.7260  -21.6448 N   0  0  0  0  0  0  0  0  0  0  0  0
   -1.3624  -55.0036  -22.9555 C   0  0  0  0  0  0  0  0  0  0  0  0
   -0.7939  -54.1199  -23.7755 N   0  0  0  0  0  0  0  0  0  0  0  0
   -0.2257  -52.9612  -23.4099 C   0  0  0  0  0  0  0  0  0  0  0  0
   -0.2620  -52.7104  -22.0322 C   0  0  0  0  0  0  0  0  0  0  0  0
    0.2920  -51.5546  -21.5442 C   0  0  0  0  0  0  0  0  0  0  0  0
    0.2757  -51.2751  -20.1921 C   0  0  0  0  0  0  0  0  0  0  0  0
    0.8264  -50.1138  -19.6402 N   0  0  0  0  0  0  0  0  0  0  0  0
    2.1788  -49.7090  -19.6352 C   0  0  0  0  0  0  0  0  0  0  0  0
    3.1055  -50.3522  -20.1402 O   0  0  0  0  0  0  0  0  0  0  0  0
    0.1172  -49.4409  -19.1541 H   0  0  0  0  0  0  0  0  0  0  0  0
    2.5639  -48.4266  -18.9888 C   0  0  0  0  0  0  0  0  0  0  0  0
    3.4355  -47.6064  -19.4990 C   0  0  0  0  0  0  0  0  0  0  0  0
    3.8112  -46.3467  -18.8599 C   0  0  0  0  0  0  0  0  0  0  0  0
    5.1033  -46.3858  -18.2207 N   0  0  0  0  0  0  0  0  0  0  0  0
    5.2838  -45.2942  -17.2876 C   0  0  0  0  0  0  0  0  0  0  0  0
    6.0914  -44.2345  -17.9580 C   0  0  0  0  0  0  0  0  0  0  0  0
    6.4476  -44.7659  -19.3044 C   0  0  0  0  0  0  0  0  0  0  0  0
    6.1197  -46.2225  -19.2383 C   0  0  0  0  0  0  0  0  0  0  0  0
   -1.3800  -52.5034  -17.1638 C   0  0  0  0  0  0  0  0  0  0  0  0
   -0.3398  -51.9115  -17.9110 O   0  0  0  0  0  0  0  0  0  0  0  0
    0.3182  -52.0721  -24.3531 N   0  0  0  0  0  0  0  0  0  0  0  0
   -0.2670  -51.5812  -25.0883 H   0  0  0  0  0  0  0  0  0  0  0  0
    1.7089  -51.7578  -24.3994 C   0  0  0  0  0  0  0  0  0  0  0  0
    2.6179  -52.8191  -24.5890 C   0  0  0  0  0  0  0  0  0  0  0  0
    3.9710  -52.6570  -24.6835 C   0  0  0  0  0  0  0  0  0  0  0  0
    4.4630  -51.3735  -24.5857 C   0  0  0  0  0  0  0  0  0  0  0  0
    5.8145  -51.1432  -24.6722 F   0  0  0  0  0  0  0  0  0  0  0  0
    3.6269  -50.3040  -24.4016 C   0  0  0  0  0  0  0  0  0  0  0  0
    4.1970  -48.6583  -24.2710 Cl  0  0  0  0  0  0  0  0  0  0  0  0
    2.2466  -50.5034  -24.3095 C   0  0  0  0  0  0  0  0  0  0  0  0
 23 24  1  0  0  0
 24  1  1  0  0  0
  1  2  2  0  0  0
  2  3  1  0  0  0
  3  4  2  0  0  0
  4  5  1  0  0  0
  5  6  2  0  0  0
  6  7  1  0  0  0
  7 25  1  0  0  0
 25 27  1  0  0  0
 27 28  2  0  0  0
 28 29  1  0  0  0
 29 30  2  0  0  0
 30 31  1  0  0  0
 30 32  1  0  0  0
 32 33  1  0  0  0
 32 34  2  0  0  0
  7  8  2  0  0  0
  8  9  1  0  0  0
  9 10  2  0  0  0
 10 11  1  0  0  0
 11 12  1  0  0  0
 12 13  2  0  0  0
 12 15  1  0  0  0
 15 16  2  0  0  0
 16 17  1  0  0  0
 17 18  1  0  0  0
 18 19  1  0  0  0
 19 20  1  0  0  0
 20 21  1  0  0  0
 21 22  1  0  0  0
 10  1  1  0  0  0
 22 18  1  0  0  0
  8  3  1  0  0  0
 34 27  1  0  0  0
 25 26  1  0  0  0
 11 14  1  0  0  0
M  END
> <minimizedAffinity>
-6.84447

> <CNNscore>
0.6020661592

> <CNNaffinity>
6.8011274338

> <CNN_VS>
4.0947284698

> <CNNaffinity_variance>
0.0771820396

$$$$
[H]/C(C(=O)N([H])c1c(OC([H])([H])[H])c([H])c2nc([H])nc(N([H])c3c([H])c([H])c(F)c(Cl)c3[H])c2c1[H])=C(/[H])C([H])([H])N1C([H])([H])C([H])([H])C([H])([H])C1([H])[H]


 34 37  0  0  0  0  0  0  0  0999 V2000
    1.2929  -52.6987  -25.4181 C   0  0  0  0  0  0  0  0  0  0  0  0
    0.4434  -53.7706  -25.3815 C   0  0  0  0  0  0  0  0  0  0  0  0
   -0.2717  -54.0456  -24.2364 C   0  0  0  0  0  0  0  0  0  0  0  0
   -1.1173  -55.0937  -24.1723 N   0  0  0  0  0  0  0  0  0  0  0  0
   -1.8255  -55.3826  -23.0724 C   0  0  0  0  0  0  0  0  0  0  0  0
   -1.6775  -54.5936  -22.0084 N   0  0  0  0  0  0  0  0  0  0  0  0
   -0.8752  -53.5215  -21.9309 C   0  0  0  0  0  0  0  0  0  0  0  0
   -0.1537  -53.2552  -23.1016 C   0  0  0  0  0  0  0  0  0  0  0  0
    0.6975  -52.1804  -23.1372 C   0  0  0  0  0  0  0  0  0  0  0  0
    1.4235  -51.8870  -24.2746 C   0  0  0  0  0  0  0  0  0  0  0  0
    2.3040  -50.8040  -24.3666 N   0  0  0  0  0  0  0  0  0  0  0  0
    3.5682  -50.6555  -23.7564 C   0  0  0  0  0  0  0  0  0  0  0  0
    4.0970  -51.4990  -23.0239 O   0  0  0  0  0  0  0  0  0  0  0  0
    1.9655  -49.9732  -24.9890 H   0  0  0  0  0  0  0  0  0  0  0  0
    4.3561  -49.4147  -23.9810 C   0  0  0  0  0  0  0  0  0  0  0  0
    3.8096  -48.2482  -24.1627 C   0  0  0  0  0  0  0  0  0  0  0  0
    4.5882  -47.0310  -24.3833 C   0  0  0  0  0  0  0  0  0  0  0  0
    4.1117  -45.8960  -23.6320 N   0  0  0  0  0  0  0  0  0  0  0  0
    2.6788  -45.9368  -23.4316 C   0  0  0  0  0  0  0  0  0  0  0  0
    2.0406  -45.0357  -24.4343 C   0  0  0  0  0  0  0  0  0  0  0  0
    3.1529  -44.3991  -25.1957 C   0  0  0  0  0  0  0  0  0  0  0  0
    4.3808  -44.6976  -24.3979 C   0  0  0  0  0  0  0  0  0  0  0  0
    1.6187  -53.0546  -27.7724 C   0  0  0  0  0  0  0  0  0  0  0  0
    2.0296  -52.4095  -26.5869 O   0  0  0  0  0  0  0  0  0  0  0  0
   -0.7563  -52.7684  -20.7500 N   0  0  0  0  0  0  0  0  0  0  0  0
   -1.4904  -52.7742  -19.9851 H   0  0  0  0  0  0  0  0  0  0  0  0
    0.3663  -51.9294  -20.4840 C   0  0  0  0  0  0  0  0  0  0  0  0
    1.5342  -52.5339  -19.9749 C   0  0  0  0  0  0  0  0  0  0  0  0
    2.6890  -51.8558  -19.7054 C   0  0  0  0  0  0  0  0  0  0  0  0
    2.6985  -50.4998  -19.9507 C   0  0  0  0  0  0  0  0  0  0  0  0
    3.8288  -49.7603  -19.7003 F   0  0  0  0  0  0  0  0  0  0  0  0
    1.5933  -49.8592  -20.4455 C   0  0  0  0  0  0  0  0  0  0  0  0
    1.5511  -48.1444  -20.7738 Cl  0  0  0  0  0  0  0  0  0  0  0  0
    0.4269  -50.5820  -20.7113 C   0  0  0  0  0  0  0  0  0  0  0  0
 23 24  1  0  0  0
 24  1  1  0  0  0
  1  2  2  0  0  0
  2  3  1  0  0  0
  3  4  2  0  0  0
  4  5  1  0  0  0
  5  6  2  0  0  0
  6  7  1  0  0  0
  7 25  1  0  0  0
 25 27  1  0  0  0
 27 28  2  0  0  0
 28 29  1  0  0  0
 29 30  2  0  0  0
 30 31  1  0  0  0
 30 32  1  0  0  0
 32 33  1  0  0  0
 32 34  2  0  0  0
  7  8  2  0  0  0
  8  9  1  0  0  0
  9 10  2  0  0  0
 10 11  1  0  0  0
 11 12  1  0  0  0
 12 13  2  0  0  0
 12 15  1  0  0  0
 15 16  2  0  0  0
 16 17  1  0  0  0
 17 18  1  0  0  0
 18 19  1  0  0  0
 19 20  1  0  0  0
 20 21  1  0  0  0
 21 22  1  0  0  0
 10  1  1  0  0  0
 22 18  1  0  0  0
  8  3  1  0  0  0
 34 27  1  0  0  0
 25 26  1  0  0  0
 11 14  1  0  0  0
M  END
> <minimizedAffinity>
-7.16966

> <CNNscore>
0.5999737978

> <CNNaffinity>
7.2383127213

> <CNN_VS>
4.3427977562

> <CNNaffinity_variance>
0.1882458627

$$$$
[H]/C(C(=O)N([H])c1c(OC([H])([H])[H])c([H])c2nc([H])nc(N([H])c3c([H])c([H])c(F)c(Cl)c3[H])c2c1[H])=C(/[H])C([H])([H])N1C([H])([H])C([H])([H])C([H])([H])C1([H])[H]


 34 37  0  0  0  0  0  0  0  0999 V2000
   -0.4966  -52.0799  -18.2925 C   0  0  0  0  0  0  0  0  0  0  0  0
   -1.0501  -53.1595  -18.9249 C   0  0  0  0  0  0  0  0  0  0  0  0
   -0.8589  -53.3398  -20.2774 C   0  0  0  0  0  0  0  0  0  0  0  0
   -1.3907  -54.3952  -20.9262 N   0  0  0  0  0  0  0  0  0  0  0  0
   -1.2191  -54.5952  -22.2399 C   0  0  0  0  0  0  0  0  0  0  0  0
   -0.4916  -53.7075  -22.9176 N   0  0  0  0  0  0  0  0  0  0  0  0
    0.0944  -52.6159  -22.4037 C   0  0  0  0  0  0  0  0  0  0  0  0
   -0.1098  -52.4449  -21.0285 C   0  0  0  0  0  0  0  0  0  0  0  0
    0.4457  -51.3623  -20.3956 C   0  0  0  0  0  0  0  0  0  0  0  0
    0.2664  -51.1627  -19.0411 C   0  0  0  0  0  0  0  0  0  0  0  0
    0.8105  -50.0782  -18.3451 N   0  0  0  0  0  0  0  0  0  0  0  0
    2.0442  -50.0126  -17.6621 C   0  0  0  0  0  0  0  0  0  0  0  0
    2.8514  -50.9450  -17.5806 O   0  0  0  0  0  0  0  0  0  0  0  0
    0.2003  -49.1728  -18.3319 H   0  0  0  0  0  0  0  0  0  0  0  0
    2.4438  -48.7548  -16.9773 C   0  0  0  0  0  0  0  0  0  0  0  0
    3.6071  -48.5872  -16.4196 C   0  0  0  0  0  0  0  0  0  0  0  0
    3.9958  -47.3489  -15.7473 C   0  0  0  0  0  0  0  0  0  0  0  0
    4.6720  -47.5608  -14.4913 N   0  0  0  0  0  0  0  0  0  0  0  0
    4.2323  -48.7722  -13.8324 C   0  0  0  0  0  0  0  0  0  0  0  0
    3.2429  -48.3995  -12.7803 C   0  0  0  0  0  0  0  0  0  0  0  0
    3.1617  -46.9111  -12.7876 C   0  0  0  0  0  0  0  0  0  0  0  0
    4.3340  -46.4694  -13.6026 C   0  0  0  0  0  0  0  0  0  0  0  0
   -1.9841  -52.1259  -16.4055 C   0  0  0  0  0  0  0  0  0  0  0  0
   -0.6873  -51.8870  -16.9073 O   0  0  0  0  0  0  0  0  0  0  0  0
    0.8144  -51.7139  -23.2061 N   0  0  0  0  0  0  0  0  0  0  0  0
    0.3753  -50.8551  -23.6462 H   0  0  0  0  0  0  0  0  0  0  0  0
    2.2009  -51.8822  -23.4966 C   0  0  0  0  0  0  0  0  0  0  0  0
    2.5475  -52.5362  -24.6968 C   0  0  0  0  0  0  0  0  0  0  0  0
    3.8332  -52.7365  -25.1128 C   0  0  0  0  0  0  0  0  0  0  0  0
    4.8418  -52.2658  -24.3003 C   0  0  0  0  0  0  0  0  0  0  0  0
    6.1562  -52.4359  -24.6616 F   0  0  0  0  0  0  0  0  0  0  0  0
    4.5643  -51.6225  -23.1230 C   0  0  0  0  0  0  0  0  0  0  0  0
    5.8029  -51.0070  -22.0567 Cl  0  0  0  0  0  0  0  0  0  0  0  0
    3.2377  -51.4329  -22.7259 C   0  0  0  0  0  0  0  0  0  0  0  0
 23 24  1  0  0  0
 24  1  1  0  0  0
  1  2  2  0  0  0
  2  3  1  0  0  0
  3  4  2  0  0  0
  4  5  1  0  0  0
  5  6  2  0  0  0
  6  7  1  0  0  0
  7 25  1  0  0  0
 25 27  1  0  0  0
 27 28  2  0  0  0
 28 29  1  0  0  0
 29 30  2  0  0  0
 30 31  1  0  0  0
 30 32  1  0  0  0
 32 33  1  0  0  0
 32 34  2  0  0  0
  7  8  2  0  0  0
  8  9  1  0  0  0
  9 10  2  0  0  0
 10 11  1  0  0  0
 11 12  1  0  0  0
 12 13  2  0  0  0
 12 15  1  0  0  0
 15 16  2  0  0  0
 16 17  1  0  0  0
 17 18  1  0  0  0
 18 19  1  0  0  0
 19 20  1  0  0  0
 20 21  1  0  0  0
 21 22  1  0  0  0
 10  1  1  0  0  0
 22 18  1  0  0  0
  8  3  1  0  0  0
 34 27  1  0  0  0
 25 26  1  0  0  0
 11 14  1  0  0  0
M  END
> <minimizedAffinity>
-6.79680

> <CNNscore>
0.5927749872

> <CNNaffinity>
6.7987222672

> <CNN_VS>
4.0301127434

> <CNNaffinity_variance>
0.0605213121

$$$$
[H]c1nc(N([H])c2c([H])c([H])c(OC([H])([H])C3([H])OC([H])([H])C([H])([H])N([H])C3([H])[H])c(C(F)(F)F)c2[H])c2c([H])c(O[C@@]([H])(OC([H])([H])c3c([H])c([H])c([H])c(F)c3[H])C([H])([H])[H])c([H])c([H])c2n1


 43 47  0  0  0  0  0  0  0  0999 V2000
    1.2079  -51.2411  -24.2274 C   0  0  0  0  0  0  0  0  0  0  0  0
    0.5152  -51.6457  -25.3372 C   0  0  0  0  0  0  0  0  0  0  0  0
   -0.3421  -52.7448  -25.2828 C   0  0  0  0  0  0  0  0  0  0  0  0
   -0.5295  -53.4684  -24.1189 C   0  0  0  0  0  0  0  0  0  0  0  0
   -1.3687  -54.5312  -24.0989 N   0  0  0  0  0  0  0  0  0  0  0  0
   -1.5624  -55.2466  -22.9730 C   0  0  0  0  0  0  0  0  0  0  0  0
   -0.8961  -54.8689  -21.8780 N   0  0  0  0  0  0  0  0  0  0  0  0
   -0.0457  -53.8215  -21.8282 C   0  0  0  0  0  0  0  0  0  0  0  0
    0.1601  -53.0767  -22.9875 C   0  0  0  0  0  0  0  0  0  0  0  0
    1.0061  -51.9872  -23.0518 C   0  0  0  0  0  0  0  0  0  0  0  0
    0.6537  -53.4665  -20.6652 N   0  0  0  0  0  0  0  0  0  0  0  0
    1.6870  -53.6990  -20.6010 H   0  0  0  0  0  0  0  0  0  0  0  0
    0.1485  -52.8052  -19.5141 C   0  0  0  0  0  0  0  0  0  0  0  0
   -0.8480  -53.2778  -18.7027 C   0  0  0  0  0  0  0  0  0  0  0  0
   -1.2662  -52.5668  -17.5667 C   0  0  0  0  0  0  0  0  0  0  0  0
   -0.6998  -51.3688  -17.2165 C   0  0  0  0  0  0  0  0  0  0  0  0
    0.3014  -50.8872  -18.0273 C   0  0  0  0  0  0  0  0  0  0  0  0
    0.7150  -51.5776  -19.1388 C   0  0  0  0  0  0  0  0  0  0  0  0
    0.9308  -49.5901  -17.6680 C   0  0  0  0  0  0  0  0  0  0  0  0
    2.1107  -49.8488  -17.0081 F   0  0  0  0  0  0  0  0  0  0  0  0
    1.2020  -48.8466  -18.7747 F   0  0  0  0  0  0  0  0  0  0  0  0
    0.1246  -48.8923  -16.7951 F   0  0  0  0  0  0  0  0  0  0  0  0
   -1.1226  -50.6652  -16.0816 O   0  0  0  0  0  0  0  0  0  0  0  0
   -1.5134  -51.4098  -14.9684 C   0  0  0  0  0  0  0  0  0  0  0  0
   -0.5449  -51.3801  -13.8349 C   0  0  0  0  0  0  0  0  0  0  0  0
   -0.0617  -49.9708  -13.5341 C   0  0  0  0  0  0  0  0  0  0  0  0
    1.1819  -50.0418  -12.8100 N   0  0  0  0  0  0  0  0  0  0  0  0
    2.1754  -50.5927  -13.7182 C   0  0  0  0  0  0  0  0  0  0  0  0
    1.6639  -51.8242  -14.3880 C   0  0  0  0  0  0  0  0  0  0  0  0
    0.4660  -52.3018  -13.9240 O   0  0  0  0  0  0  0  0  0  0  0  0
    1.0682  -50.7528  -12.0352 H   0  0  0  0  0  0  0  0  0  0  0  0
    2.0751  -50.1753  -24.1737 O   0  0  0  0  0  0  0  0  0  0  0  0
    3.6279  -49.7290  -25.9175 C   0  0  0  0  0  0  0  0  0  0  0  0
    3.4398  -50.2024  -24.4828 C   0  0  0  0  0  0  0  0  0  0  0  0
    3.9953  -51.4674  -24.3024 O   0  0  0  0  0  0  0  0  0  0  0  0
    5.0947  -51.5215  -23.4977 C   0  0  0  0  0  0  0  0  0  0  0  0
    4.9282  -50.9234  -22.1517 C   0  0  0  0  0  0  0  0  0  0  0  0
    4.0733  -51.5222  -21.2630 C   0  0  0  0  0  0  0  0  0  0  0  0
    3.9360  -50.9505  -20.0316 C   0  0  0  0  0  0  0  0  0  0  0  0
    4.6095  -49.8094  -19.6411 C   0  0  0  0  0  0  0  0  0  0  0  0
    5.4698  -49.2317  -20.5760 C   0  0  0  0  0  0  0  0  0  0  0  0
    6.1250  -48.1127  -20.1860 F   0  0  0  0  0  0  0  0  0  0  0  0
    5.6292  -49.7832  -21.8223 C   0  0  0  0  0  0  0  0  0  0  0  0
 33 34  1  0  0  0
 34 35  1  0  0  0
 35 36  1  0  0  0
 36 37  1  0  0  0
 37 38  2  0  0  0
 38 39  1  0  0  0
 39 40  2  0  0  0
 40 41  1  0  0  0
 41 42  1  0  0  0
 41 43  2  0  0  0
 34 32  1  0  0  0
 32  1  1  0  0  0
  1  2  2  0  0  0
  2  3  1  0  0  0
  3  4  2  0  0  0
  4  5  1  0  0  0
  5  6  2  0  0  0
  6  7  1  0  0  0
  7  8  2  0  0  0
  8 11  1  0  0  0
 11 13  1  0  0  0
 13 14  2  0  0  0
 14 15  1  0  0  0
 15 16  2  0  0  0
 16 23  1  0  0  0
 23 24  1  0  0  0
 24 25  1  0  0  0
 25 26  1  0  0  0
 26 27  1  0  0  0
 27 28  1  0  0  0
 28 29  1  0  0  0
 29 30  1  0  0  0
 16 17  1  0  0  0
 17 18  2  0  0  0
 17 19  1  0  0  0
 19 20  1  0  0  0
 19 21  1  0  0  0
 19 22  1  0  0  0
  8  9  1  0  0  0
  9 10  2  0  0  0
 43 37  1  0  0  0
 10  1  1  0  0  0
  9  4  1  0  0  0
 18 13  1  0  0  0
 30 25  1  0  0  0
 11 12  1  0  0  0
 27 31  1  0  0  0
M  END
> <minimizedAffinity>
-7.69448

> <CNNscore>
0.4967292547

> <CNNaffinity>
7.1721143723

> <CNN_VS>
3.5625989437

> <CNNaffinity_variance>
0.1276908070

$$$$
[H]c1nc(N([H])c2c([H])c([H])c(OC([H])([H])C3([H])OC([H])([H])C([H])([H])N([H])C3([H])[H])c(C(F)(F)F)c2[H])c2c([H])c(O[C@@]([H])(OC([H])([H])c3c([H])c([H])c([H])c(F)c3[H])C([H])([H])[H])c([H])c([H])c2n1


 43 47  0  0  0  0  0  0  0  0999 V2000
   -0.4636  -54.2181  -24.8709 C   0  0  0  0  0  0  0  0  0  0  0  0
   -1.0560  -55.2856  -24.2503 C   0  0  0  0  0  0  0  0  0  0  0  0
   -1.2593  -55.2869  -22.8703 C   0  0  0  0  0  0  0  0  0  0  0  0
   -0.8760  -54.2227  -22.0741 C   0  0  0  0  0  0  0  0  0  0  0  0
   -1.0870  -54.2549  -20.7368 N   0  0  0  0  0  0  0  0  0  0  0  0
   -0.7196  -53.2261  -19.9472 C   0  0  0  0  0  0  0  0  0  0  0  0
   -0.1395  -52.1739  -20.5322 N   0  0  0  0  0  0  0  0  0  0  0  0
    0.1004  -52.0766  -21.8572 C   0  0  0  0  0  0  0  0  0  0  0  0
   -0.2764  -53.1355  -22.6805 C   0  0  0  0  0  0  0  0  0  0  0  0
   -0.0800  -53.1438  -24.0473 C   0  0  0  0  0  0  0  0  0  0  0  0
    0.7313  -50.9646  -22.4345 N   0  0  0  0  0  0  0  0  0  0  0  0
    0.3118  -50.5391  -23.3114 H   0  0  0  0  0  0  0  0  0  0  0  0
    1.9017  -50.2976  -21.9843 C   0  0  0  0  0  0  0  0  0  0  0  0
    2.8947  -50.8628  -21.2298 C   0  0  0  0  0  0  0  0  0  0  0  0
    4.0328  -50.1328  -20.8521 C   0  0  0  0  0  0  0  0  0  0  0  0
    4.2040  -48.8231  -21.2182 C   0  0  0  0  0  0  0  0  0  0  0  0
    3.2103  -48.2482  -21.9756 C   0  0  0  0  0  0  0  0  0  0  0  0
    2.0957  -48.9565  -22.3485 C   0  0  0  0  0  0  0  0  0  0  0  0
    3.3736  -46.8291  -22.3847 C   0  0  0  0  0  0  0  0  0  0  0  0
    2.2352  -46.4364  -23.0513 F   0  0  0  0  0  0  0  0  0  0  0  0
    3.5508  -46.0189  -21.3062 F   0  0  0  0  0  0  0  0  0  0  0  0
    4.4229  -46.7035  -23.2690 F   0  0  0  0  0  0  0  0  0  0  0  0
    5.3422  -48.1013  -20.8372 O   0  0  0  0  0  0  0  0  0  0  0  0
    6.5590  -48.4601  -21.4179 C   0  0  0  0  0  0  0  0  0  0  0  0
    7.5263  -49.0986  -20.4795 C   0  0  0  0  0  0  0  0  0  0  0  0
    7.4995  -48.4512  -19.1046 C   0  0  0  0  0  0  0  0  0  0  0  0
    8.7324  -48.7450  -18.4195 N   0  0  0  0  0  0  0  0  0  0  0  0
    9.7950  -48.0579  -19.1366 C   0  0  0  0  0  0  0  0  0  0  0  0
    9.7086  -48.3214  -20.6028 C   0  0  0  0  0  0  0  0  0  0  0  0
    8.7894  -49.2626  -20.9866 O   0  0  0  0  0  0  0  0  0  0  0  0
    8.9277  -49.7789  -18.5282 H   0  0  0  0  0  0  0  0  0  0  0  0
   -0.2174  -54.1163  -26.2199 O   0  0  0  0  0  0  0  0  0  0  0  0
   -0.4976  -53.0988  -28.3499 C   0  0  0  0  0  0  0  0  0  0  0  0
    0.0261  -52.9351  -26.9298 C   0  0  0  0  0  0  0  0  0  0  0  0
    1.3771  -52.5943  -26.9370 O   0  0  0  0  0  0  0  0  0  0  0  0
    1.6881  -51.3966  -26.3643 C   0  0  0  0  0  0  0  0  0  0  0  0
    2.9273  -51.3828  -25.5510 C   0  0  0  0  0  0  0  0  0  0  0  0
    3.3132  -52.5337  -24.9140 C   0  0  0  0  0  0  0  0  0  0  0  0
    4.4563  -52.4939  -24.1698 C   0  0  0  0  0  0  0  0  0  0  0  0
    5.2352  -51.3619  -24.0282 C   0  0  0  0  0  0  0  0  0  0  0  0
    4.8066  -50.2121  -24.6931 C   0  0  0  0  0  0  0  0  0  0  0  0
    5.5748  -49.1065  -24.5482 F   0  0  0  0  0  0  0  0  0  0  0  0
    3.6615  -50.2208  -25.4492 C   0  0  0  0  0  0  0  0  0  0  0  0
 33 34  1  0  0  0
 34 35  1  0  0  0
 35 36  1  0  0  0
 36 37  1  0  0  0
 37 38  2  0  0  0
 38 39  1  0  0  0
 39 40  2  0  0  0
 40 41  1  0  0  0
 41 42  1  0  0  0
 41 43  2  0  0  0
 34 32  1  0  0  0
 32  1  1  0  0  0
  1  2  2  0  0  0
  2  3  1  0  0  0
  3  4  2  0  0  0
  4  5  1  0  0  0
  5  6  2  0  0  0
  6  7  1  0  0  0
  7  8  2  0  0  0
  8 11  1  0  0  0
 11 13  1  0  0  0
 13 14  2  0  0  0
 14 15  1  0  0  0
 15 16  2  0  0  0
 16 23  1  0  0  0
 23 24  1  0  0  0
 24 25  1  0  0  0
 25 26  1  0  0  0
 26 27  1  0  0  0
 27 28  1  0  0  0
 28 29  1  0  0  0
 29 30  1  0  0  0
 16 17  1  0  0  0
 17 18  2  0  0  0
 17 19  1  0  0  0
 19 20  1  0  0  0
 19 21  1  0  0  0
 19 22  1  0  0  0
  8  9  1  0  0  0
  9 10  2  0  0  0
 43 37  1  0  0  0
 10  1  1  0  0  0
  9  4  1  0  0  0
 18 13  1  0  0  0
 30 25  1  0  0  0
 11 12  1  0  0  0
 27 31  1  0  0  0
M  END
> <minimizedAffinity>
-7.91465

> <CNNscore>
0.3982676864

> <CNNaffinity>
7.1490235329

> <CNN_VS>
2.8472249508

> <CNNaffinity_variance>
0.2118850499

$$$$
[H]c1nc(N([H])c2c([H])c([H])c(OC([H])([H])C3([H])OC([H])([H])C([H])([H])N([H])C3([H])[H])c(C(F)(F)F)c2[H])c2c([H])c(O[C@@]([H])(OC([H])([H])c3c([H])c([H])c([H])c(F)c3[H])C([H])([H])[H])c([H])c([H])c2n1


 43 47  0  0  0  0  0  0  0  0999 V2000
    0.0412  -53.4344  -24.8882 C   0  0  0  0  0  0  0  0  0  0  0  0
   -0.6300  -54.6125  -24.6955 C   0  0  0  0  0  0  0  0  0  0  0  0
   -1.1249  -54.9551  -23.4371 C   0  0  0  0  0  0  0  0  0  0  0  0
   -0.9620  -54.1305  -22.3385 C   0  0  0  0  0  0  0  0  0  0  0  0
   -1.4540  -54.4922  -21.1297 N   0  0  0  0  0  0  0  0  0  0  0  0
   -1.3039  -53.7000  -20.0495 C   0  0  0  0  0  0  0  0  0  0  0  0
   -0.6518  -52.5455  -20.2151 N   0  0  0  0  0  0  0  0  0  0  0  0
   -0.1366  -52.1244  -21.3899 C   0  0  0  0  0  0  0  0  0  0  0  0
   -0.2876  -52.9370  -22.5114 C   0  0  0  0  0  0  0  0  0  0  0  0
    0.1982  -52.6070  -23.7612 C   0  0  0  0  0  0  0  0  0  0  0  0
    0.5612  -50.9147  -21.5222 N   0  0  0  0  0  0  0  0  0  0  0  0
    0.0440  -50.0663  -21.8947 H   0  0  0  0  0  0  0  0  0  0  0  0
    1.9221  -50.6566  -21.2078 C   0  0  0  0  0  0  0  0  0  0  0  0
    2.9925  -51.3696  -21.6774 C   0  0  0  0  0  0  0  0  0  0  0  0
    4.3093  -51.0248  -21.3340 C   0  0  0  0  0  0  0  0  0  0  0  0
    4.5863  -49.9621  -20.5140 C   0  0  0  0  0  0  0  0  0  0  0  0
    3.5161  -49.2415  -20.0376 C   0  0  0  0  0  0  0  0  0  0  0  0
    2.2266  -49.5730  -20.3700 C   0  0  0  0  0  0  0  0  0  0  0  0
    3.7914  -48.0846  -19.1467 C   0  0  0  0  0  0  0  0  0  0  0  0
    2.5932  -47.4837  -18.8336 F   0  0  0  0  0  0  0  0  0  0  0  0
    4.3976  -48.4789  -17.9942 F   0  0  0  0  0  0  0  0  0  0  0  0
    4.5548  -47.1447  -19.8045 F   0  0  0  0  0  0  0  0  0  0  0  0
    5.9029  -49.6245  -20.1757 O   0  0  0  0  0  0  0  0  0  0  0  0
    6.9077  -49.9499  -21.0873 C   0  0  0  0  0  0  0  0  0  0  0  0
    8.2785  -49.5395  -20.6675 C   0  0  0  0  0  0  0  0  0  0  0  0
    8.2874  -48.9110  -19.2837 C   0  0  0  0  0  0  0  0  0  0  0  0
    9.4789  -48.1152  -19.1334 N   0  0  0  0  0  0  0  0  0  0  0  0
    9.3641  -46.9944  -20.0533 C   0  0  0  0  0  0  0  0  0  0  0  0
    8.9792  -47.4593  -21.4180 C   0  0  0  0  0  0  0  0  0  0  0  0
    8.9699  -48.8169  -21.6052 O   0  0  0  0  0  0  0  0  0  0  0  0
   10.2997  -48.6892  -19.4733 H   0  0  0  0  0  0  0  0  0  0  0  0
    0.5675  -53.0031  -26.0831 O   0  0  0  0  0  0  0  0  0  0  0  0
    2.7775  -53.0453  -25.2085 C   0  0  0  0  0  0  0  0  0  0  0  0
    1.8538  -52.4893  -26.2833 C   0  0  0  0  0  0  0  0  0  0  0  0
    1.8708  -51.0961  -26.2779 O   0  0  0  0  0  0  0  0  0  0  0  0
    3.1003  -50.5190  -26.3994 C   0  0  0  0  0  0  0  0  0  0  0  0
    3.2207  -49.1533  -25.8361 C   0  0  0  0  0  0  0  0  0  0  0  0
    3.3040  -48.0884  -26.6952 C   0  0  0  0  0  0  0  0  0  0  0  0
    3.4165  -46.8419  -26.1513 C   0  0  0  0  0  0  0  0  0  0  0  0
    3.4505  -46.6036  -24.7911 C   0  0  0  0  0  0  0  0  0  0  0  0
    3.3631  -47.7153  -23.9519 C   0  0  0  0  0  0  0  0  0  0  0  0
    3.3985  -47.4734  -22.6201 F   0  0  0  0  0  0  0  0  0  0  0  0
    3.2489  -48.9813  -24.4688 C   0  0  0  0  0  0  0  0  0  0  0  0
 33 34  1  0  0  0
 34 35  1  0  0  0
 35 36  1  0  0  0
 36 37  1  0  0  0
 37 38  2  0  0  0
 38 39  1  0  0  0
 39 40  2  0  0  0
 40 41  1  0  0  0
 41 42  1  0  0  0
 41 43  2  0  0  0
 34 32  1  0  0  0
 32  1  1  0  0  0
  1  2  2  0  0  0
  2  3  1  0  0  0
  3  4  2  0  0  0
  4  5  1  0  0  0
  5  6  2  0  0  0
  6  7  1  0  0  0
  7  8  2  0  0  0
  8 11  1  0  0  0
 11 13  1  0  0  0
 13 14  2  0  0  0
 14 15  1  0  0  0
 15 16  2  0  0  0
 16 23  1  0  0  0
 23 24  1  0  0  0
 24 25  1  0  0  0
 25 26  1  0  0  0
 26 27  1  0  0  0
 27 28  1  0  0  0
 28 29  1  0  0  0
 29 30  1  0  0  0
 16 17  1  0  0  0
 17 18  2  0  0  0
 17 19  1  0  0  0
 19 20  1  0  0  0
 19 21  1  0  0  0
 19 22  1  0  0  0
  8  9  1  0  0  0
  9 10  2  0  0  0
 43 37  1  0  0  0
 10  1  1  0  0  0
  9  4  1  0  0  0
 18 13  1  0  0  0
 30 25  1  0  0  0
 11 12  1  0  0  0
 27 31  1  0  0  0
M  END
> <minimizedAffinity>
-7.18722

> <CNNscore>
0.2745677531

> <CNNaffinity>
6.9255571365

> <CNN_VS>
1.9015346766

> <CNNaffinity_variance>
0.2269627303

$$$$
[H]c1nc(N([H])c2c([H])c([H])c(OC([H])([H])C3([H])OC([H])([H])C([H])([H])N([H])C3([H])[H])c(C(F)(F)F)c2[H])c2c([H])c(O[C@@]([H])(OC([H])([H])c3c([H])c([H])c([H])c(F)c3[H])C([H])([H])[H])c([H])c([H])c2n1


 43 47  0  0  0  0  0  0  0  0999 V2000
   -0.2259  -53.9369  -24.9904 C   0  0  0  0  0  0  0  0  0  0  0  0
   -0.8768  -55.0705  -24.5821 C   0  0  0  0  0  0  0  0  0  0  0  0
   -1.2678  -55.2299  -23.2526 C   0  0  0  0  0  0  0  0  0  0  0  0
   -1.0188  -54.2619  -22.2964 C   0  0  0  0  0  0  0  0  0  0  0  0
   -1.4110  -54.4472  -21.0135 N   0  0  0  0  0  0  0  0  0  0  0  0
   -1.1760  -53.5137  -20.0700 C   0  0  0  0  0  0  0  0  0  0  0  0
   -0.5420  -52.3994  -20.4468 N   0  0  0  0  0  0  0  0  0  0  0  0
   -0.1241  -52.1507  -21.7063 C   0  0  0  0  0  0  0  0  0  0  0  0
   -0.3631  -53.1103  -22.6877 C   0  0  0  0  0  0  0  0  0  0  0  0
    0.0195  -52.9620  -24.0061 C   0  0  0  0  0  0  0  0  0  0  0  0
    0.5581  -50.9776  -22.0617 N   0  0  0  0  0  0  0  0  0  0  0  0
    0.0435  -50.2396  -22.6245 H   0  0  0  0  0  0  0  0  0  0  0  0
    1.8988  -50.6239  -21.7541 C   0  0  0  0  0  0  0  0  0  0  0  0
    2.8218  -51.4497  -21.1702 C   0  0  0  0  0  0  0  0  0  0  0  0
    4.1367  -51.0223  -20.9271 C   0  0  0  0  0  0  0  0  0  0  0  0
    4.5587  -49.7617  -21.2606 C   0  0  0  0  0  0  0  0  0  0  0  0
    3.6370  -48.9260  -21.8469 C   0  0  0  0  0  0  0  0  0  0  0  0
    2.3503  -49.3379  -22.0876 C   0  0  0  0  0  0  0  0  0  0  0  0
    4.0712  -47.5541  -22.2174 C   0  0  0  0  0  0  0  0  0  0  0  0
    4.5506  -46.9311  -21.0875 F   0  0  0  0  0  0  0  0  0  0  0  0
    5.0577  -47.5817  -23.1540 F   0  0  0  0  0  0  0  0  0  0  0  0
    2.9960  -46.8149  -22.6607 F   0  0  0  0  0  0  0  0  0  0  0  0
    5.8723  -49.3424  -21.0147 O   0  0  0  0  0  0  0  0  0  0  0  0
    6.9029  -50.2272  -21.3331 C   0  0  0  0  0  0  0  0  0  0  0  0
    8.0536  -49.6031  -22.0475 C   0  0  0  0  0  0  0  0  0  0  0  0
    8.0118  -48.0853  -21.9801 C   0  0  0  0  0  0  0  0  0  0  0  0
    8.8128  -47.5423  -23.0474 N   0  0  0  0  0  0  0  0  0  0  0  0
    8.1481  -47.8803  -24.2962 C   0  0  0  0  0  0  0  0  0  0  0  0
    7.7864  -49.3275  -24.3354 C   0  0  0  0  0  0  0  0  0  0  0  0
    8.2753  -50.0925  -23.3088 O   0  0  0  0  0  0  0  0  0  0  0  0
    9.7355  -48.0592  -23.0584 H   0  0  0  0  0  0  0  0  0  0  0  0
    0.2014  -53.6809  -26.2721 O   0  0  0  0  0  0  0  0  0  0  0  0
   -1.3906  -52.6958  -27.7370 C   0  0  0  0  0  0  0  0  0  0  0  0
   -0.0604  -52.5251  -27.0164 C   0  0  0  0  0  0  0  0  0  0  0  0
    0.9595  -52.2396  -27.9216 O   0  0  0  0  0  0  0  0  0  0  0  0
    2.1784  -52.7757  -27.6279 C   0  0  0  0  0  0  0  0  0  0  0  0
    2.9606  -52.0515  -26.5980 C   0  0  0  0  0  0  0  0  0  0  0  0
    3.6229  -52.7749  -25.6404 C   0  0  0  0  0  0  0  0  0  0  0  0
    4.3338  -52.0843  -24.7024 C   0  0  0  0  0  0  0  0  0  0  0  0
    4.4174  -50.7059  -24.6711 C   0  0  0  0  0  0  0  0  0  0  0  0
    3.7283  -50.0078  -25.6640 C   0  0  0  0  0  0  0  0  0  0  0  0
    3.8141  -48.6570  -25.6255 F   0  0  0  0  0  0  0  0  0  0  0  0
    3.0050  -50.6740  -26.6210 C   0  0  0  0  0  0  0  0  0  0  0  0
 33 34  1  0  0  0
 34 35  1  0  0  0
 35 36  1  0  0  0
 36 37  1  0  0  0
 37 38  2  0  0  0
 38 39  1  0  0  0
 39 40  2  0  0  0
 40 41  1  0  0  0
 41 42  1  0  0  0
 41 43  2  0  0  0
 34 32  1  0  0  0
 32  1  1  0  0  0
  1  2  2  0  0  0
  2  3  1  0  0  0
  3  4  2  0  0  0
  4  5  1  0  0  0
  5  6  2  0  0  0
  6  7  1  0  0  0
  7  8  2  0  0  0
  8 11  1  0  0  0
 11 13  1  0  0  0
 13 14  2  0  0  0
 14 15  1  0  0  0
 15 16  2  0  0  0
 16 23  1  0  0  0
 23 24  1  0  0  0
 24 25  1  0  0  0
 25 26  1  0  0  0
 26 27  1  0  0  0
 27 28  1  0  0  0
 28 29  1  0  0  0
 29 30  1  0  0  0
 16 17  1  0  0  0
 17 18  2  0  0  0
 17 19  1  0  0  0
 19 20  1  0  0  0
 19 21  1  0  0  0
 19 22  1  0  0  0
  8  9  1  0  0  0
  9 10  2  0  0  0
 43 37  1  0  0  0
 10  1  1  0  0  0
  9  4  1  0  0  0
 18 13  1  0  0  0
 30 25  1  0  0  0
 11 12  1  0  0  0
 27 31  1  0  0  0
M  END
> <minimizedAffinity>
-7.91660

> <CNNscore>
0.2436334938

> <CNNaffinity>
7.0378112793

> <CNN_VS>
1.7146465778

> <CNNaffinity_variance>
0.3118339181

$$$$
[H]c1nc(N([H])c2c([H])c([H])c(OC([H])([H])C3([H])OC([H])([H])C([H])([H])N([H])C3([H])[H])c(C(F)(F)F)c2[H])c2c([H])c(O[C@@]([H])(OC([H])([H])c3c([H])c([H])c([H])c(F)c3[H])C([H])([H])[H])c([H])c([H])c2n1


 43 47  0  0  0  0  0  0  0  0999 V2000
   -0.3290  -54.1576  -24.9272 C   0  0  0  0  0  0  0  0  0  0  0  0
   -0.9462  -55.2387  -24.3564 C   0  0  0  0  0  0  0  0  0  0  0  0
   -1.2201  -55.2650  -22.9888 C   0  0  0  0  0  0  0  0  0  0  0  0
   -0.8845  -54.2130  -22.1559 C   0  0  0  0  0  0  0  0  0  0  0  0
   -1.1636  -54.2695  -20.8319 N   0  0  0  0  0  0  0  0  0  0  0  0
   -0.8433  -53.2528  -20.0069 C   0  0  0  0  0  0  0  0  0  0  0  0
   -0.2402  -52.1877  -20.5432 N   0  0  0  0  0  0  0  0  0  0  0  0
    0.0669  -52.0662  -21.8522 C   0  0  0  0  0  0  0  0  0  0  0  0
   -0.2609  -53.1124  -22.7119 C   0  0  0  0  0  0  0  0  0  0  0  0
    0.0056  -53.0960  -24.0667 C   0  0  0  0  0  0  0  0  0  0  0  0
    0.7201  -50.9412  -22.3771 N   0  0  0  0  0  0  0  0  0  0  0  0
    0.3467  -50.5055  -23.2698 H   0  0  0  0  0  0  0  0  0  0  0  0
    1.8583  -50.2727  -21.8527 C   0  0  0  0  0  0  0  0  0  0  0  0
    2.7846  -50.8275  -21.0107 C   0  0  0  0  0  0  0  0  0  0  0  0
    3.8967  -50.0974  -20.5623 C   0  0  0  0  0  0  0  0  0  0  0  0
    4.1081  -48.7981  -20.9437 C   0  0  0  0  0  0  0  0  0  0  0  0
    3.1814  -48.2336  -21.7889 C   0  0  0  0  0  0  0  0  0  0  0  0
    2.0925  -48.9420  -22.2311 C   0  0  0  0  0  0  0  0  0  0  0  0
    3.3892  -46.8257  -22.2164 C   0  0  0  0  0  0  0  0  0  0  0  0
    2.2895  -46.4259  -22.9413 F   0  0  0  0  0  0  0  0  0  0  0  0
    3.5323  -45.9980  -21.1460 F   0  0  0  0  0  0  0  0  0  0  0  0
    4.4796  -46.7356  -23.0540 F   0  0  0  0  0  0  0  0  0  0  0  0
    5.2200  -48.0761  -20.4921 O   0  0  0  0  0  0  0  0  0  0  0  0
    5.7529  -48.4210  -19.2497 C   0  0  0  0  0  0  0  0  0  0  0  0
    5.6470  -47.3529  -18.2145 C   0  0  0  0  0  0  0  0  0  0  0  0
    4.2162  -46.8729  -18.0341 C   0  0  0  0  0  0  0  0  0  0  0  0
    4.2287  -45.5667  -17.4264 N   0  0  0  0  0  0  0  0  0  0  0  0
    4.8124  -44.6501  -18.3932 C   0  0  0  0  0  0  0  0  0  0  0  0
    6.0860  -45.1960  -18.9470 C   0  0  0  0  0  0  0  0  0  0  0  0
    6.5564  -46.3359  -18.3491 O   0  0  0  0  0  0  0  0  0  0  0  0
    4.8985  -45.5939  -16.6083 H   0  0  0  0  0  0  0  0  0  0  0  0
   -0.0144  -54.0311  -26.2598 O   0  0  0  0  0  0  0  0  0  0  0  0
   -0.2942  -52.8678  -28.3139 C   0  0  0  0  0  0  0  0  0  0  0  0
    0.3216  -52.8447  -26.9217 C   0  0  0  0  0  0  0  0  0  0  0  0
    1.6999  -52.6541  -26.9935 O   0  0  0  0  0  0  0  0  0  0  0  0
    2.1504  -51.4336  -26.5856 C   0  0  0  0  0  0  0  0  0  0  0  0
    3.2107  -51.4601  -25.5501 C   0  0  0  0  0  0  0  0  0  0  0  0
    3.4757  -52.6402  -24.9049 C   0  0  0  0  0  0  0  0  0  0  0  0
    4.4548  -52.6373  -23.9544 C   0  0  0  0  0  0  0  0  0  0  0  0
    5.1841  -51.5147  -23.6140 C   0  0  0  0  0  0  0  0  0  0  0  0
    4.8825  -50.3343  -24.2948 C   0  0  0  0  0  0  0  0  0  0  0  0
    5.6008  -49.2381  -23.9545 F   0  0  0  0  0  0  0  0  0  0  0  0
    3.9036  -50.3054  -25.2560 C   0  0  0  0  0  0  0  0  0  0  0  0
 33 34  1  0  0  0
 34 35  1  0  0  0
 35 36  1  0  0  0
 36 37  1  0  0  0
 37 38  2  0  0  0
 38 39  1  0  0  0
 39 40  2  0  0  0
 40 41  1  0  0  0
 41 42  1  0  0  0
 41 43  2  0  0  0
 34 32  1  0  0  0
 32  1  1  0  0  0
  1  2  2  0  0  0
  2  3  1  0  0  0
  3  4  2  0  0  0
  4  5  1  0  0  0
  5  6  2  0  0  0
  6  7  1  0  0  0
  7  8  2  0  0  0
  8 11  1  0  0  0
 11 13  1  0  0  0
 13 14  2  0  0  0
 14 15  1  0  0  0
 15 16  2  0  0  0
 16 23  1  0  0  0
 23 24  1  0  0  0
 24 25  1  0  0  0
 25 26  1  0  0  0
 26 27  1  0  0  0
 27 28  1  0  0  0
 28 29  1  0  0  0
 29 30  1  0  0  0
 16 17  1  0  0  0
 17 18  2  0  0  0
 17 19  1  0  0  0
 19 20  1  0  0  0
 19 21  1  0  0  0
 19 22  1  0  0  0
  8  9  1  0  0  0
  9 10  2  0  0  0
 43 37  1  0  0  0
 10  1  1  0  0  0
  9  4  1  0  0  0
 18 13  1  0  0  0
 30 25  1  0  0  0
 11 12  1  0  0  0
 27 31  1  0  0  0
M  END
> <minimizedAffinity>
-7.26066

> <CNNscore>
0.1930929124

> <CNNaffinity>
6.9596390724

> <CNN_VS>
1.3438569307

> <CNNaffinity_variance>
0.2326943427

$$$$
[H]c1nc(N([H])c2c([H])c([H])c(OC([H])([H])C3([H])OC([H])([H])C([H])([H])N([H])C3([H])[H])c(C(F)(F)F)c2[H])c2c([H])c(O[C@@]([H])(OC([H])([H])c3c([H])c([H])c([H])c(F)c3[H])C([H])([H])[H])c([H])c([H])c2n1


 43 47  0  0  0  0  0  0  0  0999 V2000
   -0.3758  -52.4242  -24.1469 C   0  0  0  0  0  0  0  0  0  0  0  0
   -1.0782  -52.2218  -25.3049 C   0  0  0  0  0  0  0  0  0  0  0  0
   -0.4401  -52.2669  -26.5445 C   0  0  0  0  0  0  0  0  0  0  0  0
    0.9158  -52.5148  -26.6599 C   0  0  0  0  0  0  0  0  0  0  0  0
    1.5058  -52.5516  -27.8783 N   0  0  0  0  0  0  0  0  0  0  0  0
    2.8258  -52.7921  -28.0078 C   0  0  0  0  0  0  0  0  0  0  0  0
    3.5305  -52.9924  -26.8902 N   0  0  0  0  0  0  0  0  0  0  0  0
    3.0067  -52.9694  -25.6461 C   0  0  0  0  0  0  0  0  0  0  0  0
    1.6431  -52.7218  -25.5034 C   0  0  0  0  0  0  0  0  0  0  0  0
    1.0020  -52.6753  -24.2813 C   0  0  0  0  0  0  0  0  0  0  0  0
    3.7815  -53.1632  -24.4929 N   0  0  0  0  0  0  0  0  0  0  0  0
    3.8220  -54.1326  -24.0633 H   0  0  0  0  0  0  0  0  0  0  0  0
    4.5571  -52.2001  -23.7941 C   0  0  0  0  0  0  0  0  0  0  0  0
    5.8147  -51.7891  -24.1466 C   0  0  0  0  0  0  0  0  0  0  0  0
    6.4981  -50.8088  -23.4098 C   0  0  0  0  0  0  0  0  0  0  0  0
    5.9418  -50.2184  -22.3050 C   0  0  0  0  0  0  0  0  0  0  0  0
    4.6789  -50.6267  -21.9442 C   0  0  0  0  0  0  0  0  0  0  0  0
    4.0055  -51.5840  -22.6606 C   0  0  0  0  0  0  0  0  0  0  0  0
    4.0549  -50.0007  -20.7498 C   0  0  0  0  0  0  0  0  0  0  0  0
    2.7500  -50.4307  -20.6669 F   0  0  0  0  0  0  0  0  0  0  0  0
    4.7053  -50.3533  -19.6078 F   0  0  0  0  0  0  0  0  0  0  0  0
    4.0204  -48.6304  -20.8903 F   0  0  0  0  0  0  0  0  0  0  0  0
    6.6299  -49.2411  -21.5749 O   0  0  0  0  0  0  0  0  0  0  0  0
    8.0215  -49.3297  -21.5288 C   0  0  0  0  0  0  0  0  0  0  0  0
    8.5984  -49.2742  -20.1548 C   0  0  0  0  0  0  0  0  0  0  0  0
    7.6841  -48.5493  -19.1809 C   0  0  0  0  0  0  0  0  0  0  0  0
    8.4575  -48.1000  -18.0514 N   0  0  0  0  0  0  0  0  0  0  0  0
    9.3721  -47.0789  -18.5375 C   0  0  0  0  0  0  0  0  0  0  0  0
   10.0908  -47.5424  -19.7604 C   0  0  0  0  0  0  0  0  0  0  0  0
    9.9031  -48.8568  -20.1004 O   0  0  0  0  0  0  0  0  0  0  0  0
    9.0630  -48.9053  -17.7295 H   0  0  0  0  0  0  0  0  0  0  0  0
   -0.9062  -52.4008  -22.8785 O   0  0  0  0  0  0  0  0  0  0  0  0
   -1.2394  -54.3180  -21.5129 C   0  0  0  0  0  0  0  0  0  0  0  0
   -0.4016  -53.0706  -21.7580 C   0  0  0  0  0  0  0  0  0  0  0  0
   -0.3794  -52.2592  -20.6255 O   0  0  0  0  0  0  0  0  0  0  0  0
   -0.2785  -52.9115  -19.4324 C   0  0  0  0  0  0  0  0  0  0  0  0
   -0.3706  -52.0526  -18.2279 C   0  0  0  0  0  0  0  0  0  0  0  0
   -1.1282  -52.4788  -17.1679 C   0  0  0  0  0  0  0  0  0  0  0  0
   -1.1984  -51.6686  -16.0721 C   0  0  0  0  0  0  0  0  0  0  0  0
   -0.5502  -50.4523  -15.9800 C   0  0  0  0  0  0  0  0  0  0  0  0
    0.2103  -50.0561  -17.0812 C   0  0  0  0  0  0  0  0  0  0  0  0
    0.8414  -48.8621  -16.9837 F   0  0  0  0  0  0  0  0  0  0  0  0
    0.3006  -50.8491  -18.1975 C   0  0  0  0  0  0  0  0  0  0  0  0
 33 34  1  0  0  0
 34 35  1  0  0  0
 35 36  1  0  0  0
 36 37  1  0  0  0
 37 38  2  0  0  0
 38 39  1  0  0  0
 39 40  2  0  0  0
 40 41  1  0  0  0
 41 42  1  0  0  0
 41 43  2  0  0  0
 34 32  1  0  0  0
 32  1  1  0  0  0
  1  2  2  0  0  0
  2  3  1  0  0  0
  3  4  2  0  0  0
  4  5  1  0  0  0
  5  6  2  0  0  0
  6  7  1  0  0  0
  7  8  2  0  0  0
  8 11  1  0  0  0
 11 13  1  0  0  0
 13 14  2  0  0  0
 14 15  1  0  0  0
 15 16  2  0  0  0
 16 23  1  0  0  0
 23 24  1  0  0  0
 24 25  1  0  0  0
 25 26  1  0  0  0
 26 27  1  0  0  0
 27 28  1  0  0  0
 28 29  1  0  0  0
 29 30  1  0  0  0
 16 17  1  0  0  0
 17 18  2  0  0  0
 17 19  1  0  0  0
 19 20  1  0  0  0
 19 21  1  0  0  0
 19 22  1  0  0  0
  8  9  1  0  0  0
  9 10  2  0  0  0
 43 37  1  0  0  0
 10  1  1  0  0  0
  9  4  1  0  0  0
 18 13  1  0  0  0
 30 25  1  0  0  0
 11 12  1  0  0  0
 27 31  1  0  0  0
M  END
> <minimizedAffinity>
-8.43883

> <CNNscore>
0.1796369106

> <CNNaffinity>
6.6137456894

> <CNN_VS>
1.1880728006

> <CNNaffinity_variance>
0.4395214617

$$$$
[H]c1nc(N([H])c2c([H])c([H])c(OC([H])([H])C3([H])OC([H])([H])C([H])([H])N([H])C3([H])[H])c(C(F)(F)F)c2[H])c2c([H])c(O[C@@]([H])(OC([H])([H])c3c([H])c([H])c([H])c(F)c3[H])C([H])([H])[H])c([H])c([H])c2n1


 43 47  0  0  0  0  0  0  0  0999 V2000
   -0.3418  -52.9771  -23.2479 C   0  0  0  0  0  0  0  0  0  0  0  0
   -0.4834  -54.1305  -22.5233 C   0  0  0  0  0  0  0  0  0  0  0  0
   -0.3747  -54.1183  -21.1326 C   0  0  0  0  0  0  0  0  0  0  0  0
   -0.1216  -52.9543  -20.4296 C   0  0  0  0  0  0  0  0  0  0  0  0
   -0.0213  -52.9758  -19.0792 N   0  0  0  0  0  0  0  0  0  0  0  0
    0.2248  -51.8504  -18.3794 C   0  0  0  0  0  0  0  0  0  0  0  0
    0.3665  -50.7132  -19.0669 N   0  0  0  0  0  0  0  0  0  0  0  0
    0.2790  -50.6208  -20.4109 C   0  0  0  0  0  0  0  0  0  0  0  0
    0.0246  -51.7793  -21.1418 C   0  0  0  0  0  0  0  0  0  0  0  0
   -0.0850  -51.8020  -22.5181 C   0  0  0  0  0  0  0  0  0  0  0  0
    0.4544  -49.4123  -21.1014 N   0  0  0  0  0  0  0  0  0  0  0  0
   -0.3834  -48.9750  -21.5839 H   0  0  0  0  0  0  0  0  0  0  0  0
    1.6493  -48.6582  -21.2452 C   0  0  0  0  0  0  0  0  0  0  0  0
    2.2716  -47.9615  -20.2440 C   0  0  0  0  0  0  0  0  0  0  0  0
    3.4684  -47.2639  -20.4719 C   0  0  0  0  0  0  0  0  0  0  0  0
    4.0695  -47.2457  -21.7035 C   0  0  0  0  0  0  0  0  0  0  0  0
    3.4499  -47.9426  -22.7145 C   0  0  0  0  0  0  0  0  0  0  0  0
    2.2802  -48.6269  -22.4981 C   0  0  0  0  0  0  0  0  0  0  0  0
    4.0828  -47.9376  -24.0588 C   0  0  0  0  0  0  0  0  0  0  0  0
    3.4083  -48.8317  -24.8589 F   0  0  0  0  0  0  0  0  0  0  0  0
    4.0215  -46.7050  -24.6316 F   0  0  0  0  0  0  0  0  0  0  0  0
    5.3871  -48.3744  -23.9756 F   0  0  0  0  0  0  0  0  0  0  0  0
    5.2635  -46.5472  -21.9230 O   0  0  0  0  0  0  0  0  0  0  0  0
    6.2131  -46.5542  -20.9010 C   0  0  0  0  0  0  0  0  0  0  0  0
    6.7335  -47.9071  -20.5511 C   0  0  0  0  0  0  0  0  0  0  0  0
    7.1216  -48.0076  -19.0850 C   0  0  0  0  0  0  0  0  0  0  0  0
    8.0382  -49.1057  -18.9127 N   0  0  0  0  0  0  0  0  0  0  0  0
    9.2682  -48.7491  -19.6023 C   0  0  0  0  0  0  0  0  0  0  0  0
    8.9851  -48.2609  -20.9837 C   0  0  0  0  0  0  0  0  0  0  0  0
    7.6884  -48.3902  -21.4080 O   0  0  0  0  0  0  0  0  0  0  0  0
    7.6462  -49.9419  -19.4282 H   0  0  0  0  0  0  0  0  0  0  0  0
   -0.4298  -52.8798  -24.6167 O   0  0  0  0  0  0  0  0  0  0  0  0
    0.1394  -54.3999  -26.3534 C   0  0  0  0  0  0  0  0  0  0  0  0
    0.5785  -53.1935  -25.5351 C   0  0  0  0  0  0  0  0  0  0  0  0
    1.8008  -53.4367  -24.9122 O   0  0  0  0  0  0  0  0  0  0  0  0
    2.8377  -52.6486  -25.3160 C   0  0  0  0  0  0  0  0  0  0  0  0
    3.7218  -52.1559  -24.2330 C   0  0  0  0  0  0  0  0  0  0  0  0
    5.0185  -51.8293  -24.5347 C   0  0  0  0  0  0  0  0  0  0  0  0
    5.8122  -51.3806  -23.5195 C   0  0  0  0  0  0  0  0  0  0  0  0
    5.3771  -51.2410  -22.2159 C   0  0  0  0  0  0  0  0  0  0  0  0
    4.0504  -51.5844  -21.9518 C   0  0  0  0  0  0  0  0  0  0  0  0
    3.6321  -51.4461  -20.6715 F   0  0  0  0  0  0  0  0  0  0  0  0
    3.2275  -52.0385  -22.9517 C   0  0  0  0  0  0  0  0  0  0  0  0
 33 34  1  0  0  0
 34 35  1  0  0  0
 35 36  1  0  0  0
 36 37  1  0  0  0
 37 38  2  0  0  0
 38 39  1  0  0  0
 39 40  2  0  0  0
 40 41  1  0  0  0
 41 42  1  0  0  0
 41 43  2  0  0  0
 34 32  1  0  0  0
 32  1  1  0  0  0
  1  2  2  0  0  0
  2  3  1  0  0  0
  3  4  2  0  0  0
  4  5  1  0  0  0
  5  6  2  0  0  0
  6  7  1  0  0  0
  7  8  2  0  0  0
  8 11  1  0  0  0
 11 13  1  0  0  0
 13 14  2  0  0  0
 14 15  1  0  0  0
 15 16  2  0  0  0
 16 23  1  0  0  0
 23 24  1  0  0  0
 24 25  1  0  0  0
 25 26  1  0  0  0
 26 27  1  0  0  0
 27 28  1  0  0  0
 28 29  1  0  0  0
 29 30  1  0  0  0
 16 17  1  0  0  0
 17 18  2  0  0  0
 17 19  1  0  0  0
 19 20  1  0  0  0
 19 21  1  0  0  0
 19 22  1  0  0  0
  8  9  1  0  0  0
  9 10  2  0  0  0
 43 37  1  0  0  0
 10  1  1  0  0  0
  9  4  1  0  0  0
 18 13  1  0  0  0
 30 25  1  0  0  0
 11 12  1  0  0  0
 27 31  1  0  0  0
M  END
> <minimizedAffinity>
-7.32916

> <CNNscore>
0.1700000167

> <CNNaffinity>
6.4773306847

> <CNN_VS>
1.1011463404

> <CNNaffinity_variance>
0.7255760431

$$$$
[H]c1nc(N([H])c2c([H])c([H])c(OC([H])([H])C3([H])OC([H])([H])C([H])([H])N([H])C3([H])[H])c(C(F)(F)F)c2[H])c2c([H])c(O[C@@]([H])(OC([H])([H])c3c([H])c([H])c([H])c(F)c3[H])C([H])([H])[H])c([H])c([H])c2n1


 43 47  0  0  0  0  0  0  0  0999 V2000
   -0.3059  -52.2363  -21.7883 C   0  0  0  0  0  0  0  0  0  0  0  0
   -0.9717  -53.3138  -21.2674 C   0  0  0  0  0  0  0  0  0  0  0  0
   -1.1315  -53.4566  -19.8890 C   0  0  0  0  0  0  0  0  0  0  0  0
   -0.6303  -52.5277  -18.9951 C   0  0  0  0  0  0  0  0  0  0  0  0
   -0.8017  -52.6955  -17.6622 N   0  0  0  0  0  0  0  0  0  0  0  0
   -0.3197  -51.7995  -16.7781 C   0  0  0  0  0  0  0  0  0  0  0  0
    0.3336  -50.7403  -17.2649 N   0  0  0  0  0  0  0  0  0  0  0  0
    0.5401  -50.5119  -18.5794 C   0  0  0  0  0  0  0  0  0  0  0  0
    0.0449  -51.4329  -19.5000 C   0  0  0  0  0  0  0  0  0  0  0  0
    0.1974  -51.3006  -20.8660 C   0  0  0  0  0  0  0  0  0  0  0  0
    1.2495  -49.3986  -19.0539 N   0  0  0  0  0  0  0  0  0  0  0  0
    0.7705  -48.4517  -19.0548 H   0  0  0  0  0  0  0  0  0  0  0  0
    2.5801  -49.3616  -19.5495 C   0  0  0  0  0  0  0  0  0  0  0  0
    3.7023  -49.6742  -18.8299 C   0  0  0  0  0  0  0  0  0  0  0  0
    4.9794  -49.6356  -19.4116 C   0  0  0  0  0  0  0  0  0  0  0  0
    5.1643  -49.2836  -20.7232 C   0  0  0  0  0  0  0  0  0  0  0  0
    4.0417  -48.9676  -21.4523 C   0  0  0  0  0  0  0  0  0  0  0  0
    2.7906  -49.0038  -20.8898 C   0  0  0  0  0  0  0  0  0  0  0  0
    4.2170  -48.5828  -22.8768 C   0  0  0  0  0  0  0  0  0  0  0  0
    4.8603  -47.3667  -22.9214 F   0  0  0  0  0  0  0  0  0  0  0  0
    4.9651  -49.4986  -23.5498 F   0  0  0  0  0  0  0  0  0  0  0  0
    2.9905  -48.4132  -23.4814 F   0  0  0  0  0  0  0  0  0  0  0  0
    6.4417  -49.2473  -21.2964 O   0  0  0  0  0  0  0  0  0  0  0  0
    7.3297  -48.2757  -20.8341 C   0  0  0  0  0  0  0  0  0  0  0  0
    8.2917  -48.7593  -19.8024 C   0  0  0  0  0  0  0  0  0  0  0  0
    8.2677  -47.8971  -18.5510 C   0  0  0  0  0  0  0  0  0  0  0  0
    9.4979  -48.0835  -17.8246 N   0  0  0  0  0  0  0  0  0  0  0  0
   10.5659  -47.5289  -18.6414 C   0  0  0  0  0  0  0  0  0  0  0  0
   10.4793  -48.0265  -20.0456 C   0  0  0  0  0  0  0  0  0  0  0  0
    9.5542  -49.0117  -20.2733 O   0  0  0  0  0  0  0  0  0  0  0  0
    9.6864  -49.1225  -17.7634 H   0  0  0  0  0  0  0  0  0  0  0  0
   -0.0935  -52.0012  -23.1263 O   0  0  0  0  0  0  0  0  0  0  0  0
    2.2762  -52.1818  -23.1782 C   0  0  0  0  0  0  0  0  0  0  0  0
    0.9688  -52.4915  -23.8942 C   0  0  0  0  0  0  0  0  0  0  0  0
    0.9739  -51.9636  -25.1836 O   0  0  0  0  0  0  0  0  0  0  0  0
    1.2175  -52.8545  -26.1867 C   0  0  0  0  0  0  0  0  0  0  0  0
    0.2488  -52.8305  -27.3083 C   0  0  0  0  0  0  0  0  0  0  0  0
    0.7033  -53.0655  -28.5800 C   0  0  0  0  0  0  0  0  0  0  0  0
   -0.2083  -53.0354  -29.5950 C   0  0  0  0  0  0  0  0  0  0  0  0
   -1.5529  -52.7822  -29.4054 C   0  0  0  0  0  0  0  0  0  0  0  0
   -1.9737  -52.5482  -28.0953 C   0  0  0  0  0  0  0  0  0  0  0  0
   -3.2928  -52.2994  -27.9180 F   0  0  0  0  0  0  0  0  0  0  0  0
   -1.0809  -52.5719  -27.0535 C   0  0  0  0  0  0  0  0  0  0  0  0
 33 34  1  0  0  0
 34 35  1  0  0  0
 35 36  1  0  0  0
 36 37  1  0  0  0
 37 38  2  0  0  0
 38 39  1  0  0  0
 39 40  2  0  0  0
 40 41  1  0  0  0
 41 42  1  0  0  0
 41 43  2  0  0  0
 34 32  1  0  0  0
 32  1  1  0  0  0
  1  2  2  0  0  0
  2  3  1  0  0  0
  3  4  2  0  0  0
  4  5  1  0  0  0
  5  6  2  0  0  0
  6  7  1  0  0  0
  7  8  2  0  0  0
  8 11  1  0  0  0
 11 13  1  0  0  0
 13 14  2  0  0  0
 14 15  1  0  0  0
 15 16  2  0  0  0
 16 23  1  0  0  0
 23 24  1  0  0  0
 24 25  1  0  0  0
 25 26  1  0  0  0
 26 27  1  0  0  0
 27 28  1  0  0  0
 28 29  1  0  0  0
 29 30  1  0  0  0
 16 17  1  0  0  0
 17 18  2  0  0  0
 17 19  1  0  0  0
 19 20  1  0  0  0
 19 21  1  0  0  0
 19 22  1  0  0  0
  8  9  1  0  0  0
  9 10  2  0  0  0
 43 37  1  0  0  0
 10  1  1  0  0  0
  9  4  1  0  0  0
 18 13  1  0  0  0
 30 25  1  0  0  0
 11 12  1  0  0  0
 27 31  1  0  0  0
M  END
> <minimizedAffinity>
-7.95568

> <CNNscore>
0.1693862379

> <CNNaffinity>
6.6367096901

> <CNN_VS>
1.1241673231

> <CNNaffinity_variance>
0.1300388277

$$$$
[H]c1nc(N([H])c2c([H])c([H])c(OC([H])([H])C3([H])OC([H])([H])C([H])([H])N([H])C3([H])[H])c(C(F)(F)F)c2[H])c2c([H])c(O[C@@]([H])(OC([H])([H])c3c([H])c([H])c([H])c(F)c3[H])C([H])([H])[H])c([H])c([H])c2n1


 43 47  0  0  0  0  0  0  0  0999 V2000
   -0.4092  -52.6686  -24.7903 C   0  0  0  0  0  0  0  0  0  0  0  0
   -0.6942  -54.0034  -24.6782 C   0  0  0  0  0  0  0  0  0  0  0  0
   -0.8213  -54.6039  -23.4256 C   0  0  0  0  0  0  0  0  0  0  0  0
   -0.6667  -53.8874  -22.2526 C   0  0  0  0  0  0  0  0  0  0  0  0
   -0.7959  -54.5000  -21.0517 N   0  0  0  0  0  0  0  0  0  0  0  0
   -0.6484  -53.8160  -19.8997 C   0  0  0  0  0  0  0  0  0  0  0  0
   -0.3699  -52.5120  -19.9860 N   0  0  0  0  0  0  0  0  0  0  0  0
   -0.2277  -51.8396  -21.1481 C   0  0  0  0  0  0  0  0  0  0  0  0
   -0.3788  -52.5390  -22.3435 C   0  0  0  0  0  0  0  0  0  0  0  0
   -0.2553  -51.9540  -23.5882 C   0  0  0  0  0  0  0  0  0  0  0  0
    0.0860  -50.4734  -21.2008 N   0  0  0  0  0  0  0  0  0  0  0  0
   -0.6695  -49.7880  -21.4931 H   0  0  0  0  0  0  0  0  0  0  0  0
    1.3278  -49.8537  -20.8984 C   0  0  0  0  0  0  0  0  0  0  0  0
    1.4914  -48.7601  -20.0910 C   0  0  0  0  0  0  0  0  0  0  0  0
    2.7638  -48.2297  -19.8256 C   0  0  0  0  0  0  0  0  0  0  0  0
    3.9001  -48.7784  -20.3607 C   0  0  0  0  0  0  0  0  0  0  0  0
    3.7437  -49.8768  -21.1736 C   0  0  0  0  0  0  0  0  0  0  0  0
    2.5028  -50.4004  -21.4365 C   0  0  0  0  0  0  0  0  0  0  0  0
    4.9613  -50.4893  -21.7655 C   0  0  0  0  0  0  0  0  0  0  0  0
    5.4932  -49.6042  -22.6755 F   0  0  0  0  0  0  0  0  0  0  0  0
    5.8968  -50.7536  -20.8135 F   0  0  0  0  0  0  0  0  0  0  0  0
    4.6326  -51.6334  -22.4596 F   0  0  0  0  0  0  0  0  0  0  0  0
    5.1661  -48.2434  -20.0914 O   0  0  0  0  0  0  0  0  0  0  0  0
    5.3432  -46.8733  -20.2863 C   0  0  0  0  0  0  0  0  0  0  0  0
    4.9936  -46.3942  -21.6545 C   0  0  0  0  0  0  0  0  0  0  0  0
    6.2286  -46.0631  -22.4761 C   0  0  0  0  0  0  0  0  0  0  0  0
    5.8587  -45.1763  -23.5496 N   0  0  0  0  0  0  0  0  0  0  0  0
    5.4614  -43.9145  -22.9451 C   0  0  0  0  0  0  0  0  0  0  0  0
    4.4931  -44.1359  -21.8315 C   0  0  0  0  0  0  0  0  0  0  0  0
    4.0313  -45.4183  -21.6887 O   0  0  0  0  0  0  0  0  0  0  0  0
    4.9899  -45.5660  -24.0101 H   0  0  0  0  0  0  0  0  0  0  0  0
   -0.2632  -51.9812  -25.9722 O   0  0  0  0  0  0  0  0  0  0  0  0
    0.7462  -52.8636  -27.9352 C   0  0  0  0  0  0  0  0  0  0  0  0
    0.8960  -51.9154  -26.7536 C   0  0  0  0  0  0  0  0  0  0  0  0
    2.0424  -52.2154  -26.0208 O   0  0  0  0  0  0  0  0  0  0  0  0
    3.1892  -51.6099  -26.4421 C   0  0  0  0  0  0  0  0  0  0  0  0
    3.2894  -50.1610  -26.1461 C   0  0  0  0  0  0  0  0  0  0  0  0
    3.7081  -49.3109  -27.1367 C   0  0  0  0  0  0  0  0  0  0  0  0
    3.7941  -47.9822  -26.8378 C   0  0  0  0  0  0  0  0  0  0  0  0
    3.4833  -47.4576  -25.5984 C   0  0  0  0  0  0  0  0  0  0  0  0
    3.0612  -48.3574  -24.6185 C   0  0  0  0  0  0  0  0  0  0  0  0
    2.7598  -47.8355  -23.4060 F   0  0  0  0  0  0  0  0  0  0  0  0
    2.9644  -49.6993  -24.8887 C   0  0  0  0  0  0  0  0  0  0  0  0
 33 34  1  0  0  0
 34 35  1  0  0  0
 35 36  1  0  0  0
 36 37  1  0  0  0
 37 38  2  0  0  0
 38 39  1  0  0  0
 39 40  2  0  0  0
 40 41  1  0  0  0
 41 42  1  0  0  0
 41 43  2  0  0  0
 34 32  1  0  0  0
 32  1  1  0  0  0
  1  2  2  0  0  0
  2  3  1  0  0  0
  3  4  2  0  0  0
  4  5  1  0  0  0
  5  6  2  0  0  0
  6  7  1  0  0  0
  7  8  2  0  0  0
  8 11  1  0  0  0
 11 13  1  0  0  0
 13 14  2  0  0  0
 14 15  1  0  0  0
 15 16  2  0  0  0
 16 23  1  0  0  0
 23 24  1  0  0  0
 24 25  1  0  0  0
 25 26  1  0  0  0
 26 27  1  0  0  0
 27 28  1  0  0  0
 28 29  1  0  0  0
 29 30  1  0  0  0
 16 17  1  0  0  0
 17 18  2  0  0  0
 17 19  1  0  0  0
 19 20  1  0  0  0
 19 21  1  0  0  0
 19 22  1  0  0  0
  8  9  1  0  0  0
  9 10  2  0  0  0
 43 37  1  0  0  0
 10  1  1  0  0  0
  9  4  1  0  0  0
 18 13  1  0  0  0
 30 25  1  0  0  0
 11 12  1  0  0  0
 27 31  1  0  0  0
M  END
> <minimizedAffinity>
-6.75098

> <CNNscore>
0.1678203046

> <CNNaffinity>
6.9372367859

> <CNN_VS>
1.1642092466

> <CNNaffinity_variance>
0.2790374756

$$$$
[H]c1nc(N([H])c2c([H])c([H])c(Oc3c([H])c([H])c([H])c4nc([H])sc34)c(Cl)c2[H])c2c([H])c(N([H])N3C([H])([H])C([H])([H])N(C([H])([H])[H])C([H])([H])C3([H])[H])c([H])c([H])c2n1


 38 43  0  0  0  0  0  0  0  0999 V2000
    3.2257  -52.6525  -24.9742 C   0  0  0  0  0  0  0  0  0  0  0  0
    3.3297  -51.9897  -26.1716 C   0  0  0  0  0  0  0  0  0  0  0  0
    2.2555  -51.7803  -26.9959 C   0  0  0  0  0  0  0  0  0  0  0  0
    0.9961  -52.2452  -26.6339 C   0  0  0  0  0  0  0  0  0  0  0  0
   -0.0757  -52.0699  -27.3911 N   0  0  0  0  0  0  0  0  0  0  0  0
   -1.2869  -52.5167  -27.0408 C   0  0  0  0  0  0  0  0  0  0  0  0
   -1.4419  -53.1631  -25.8934 N   0  0  0  0  0  0  0  0  0  0  0  0
   -0.4153  -53.3937  -25.0509 C   0  0  0  0  0  0  0  0  0  0  0  0
    0.8490  -52.9237  -25.4237 C   0  0  0  0  0  0  0  0  0  0  0  0
    1.9466  -53.1159  -24.6223 C   0  0  0  0  0  0  0  0  0  0  0  0
    4.3419  -52.8679  -24.1234 N   0  0  0  0  0  0  0  0  0  0  0  0
    4.9537  -53.6960  -24.2719 H   0  0  0  0  0  0  0  0  0  0  0  0
    5.6225  -48.1560  -22.6583 C   0  0  0  0  0  0  0  0  0  0  0  0
    4.8090  -49.1333  -23.3548 N   0  0  0  0  0  0  0  0  0  0  0  0
    3.7882  -49.7003  -22.5652 C   0  0  0  0  0  0  0  0  0  0  0  0
    3.4905  -51.1422  -22.7575 C   0  0  0  0  0  0  0  0  0  0  0  0
    4.5981  -51.9705  -23.1090 N   0  0  0  0  0  0  0  0  0  0  0  0
    5.8411  -51.2725  -23.2840 C   0  0  0  0  0  0  0  0  0  0  0  0
    5.5965  -50.0477  -24.1364 C   0  0  0  0  0  0  0  0  0  0  0  0
   -0.5427  -54.0971  -23.8518 N   0  0  0  0  0  0  0  0  0  0  0  0
   -0.8232  -55.1044  -23.8063 H   0  0  0  0  0  0  0  0  0  0  0  0
   -0.2951  -53.4803  -22.5743 C   0  0  0  0  0  0  0  0  0  0  0  0
   -0.1118  -54.3269  -21.4673 C   0  0  0  0  0  0  0  0  0  0  0  0
    0.1606  -53.8793  -20.2053 C   0  0  0  0  0  0  0  0  0  0  0  0
    0.2654  -52.5258  -19.9834 C   0  0  0  0  0  0  0  0  0  0  0  0
    0.0905  -51.6861  -21.0492 C   0  0  0  0  0  0  0  0  0  0  0  0
    0.2058  -49.9399  -20.8514 Cl  0  0  0  0  0  0  0  0  0  0  0  0
   -0.1880  -52.1468  -22.3423 C   0  0  0  0  0  0  0  0  0  0  0  0
    0.5401  -52.0433  -18.7143 O   0  0  0  0  0  0  0  0  0  0  0  0
   -0.3745  -51.8180  -17.7178 C   0  0  0  0  0  0  0  0  0  0  0  0
   -1.4331  -52.6569  -17.4341 C   0  0  0  0  0  0  0  0  0  0  0  0
   -2.2437  -52.2627  -16.3971 C   0  0  0  0  0  0  0  0  0  0  0  0
   -2.0802  -51.1276  -15.6455 C   0  0  0  0  0  0  0  0  0  0  0  0
   -0.9960  -50.2716  -15.9385 C   0  0  0  0  0  0  0  0  0  0  0  0
   -0.7125  -49.1625  -15.3149 N   0  0  0  0  0  0  0  0  0  0  0  0
    0.3331  -48.4432  -15.6816 C   0  0  0  0  0  0  0  0  0  0  0  0
    0.9630  -49.3675  -16.9763 S   0  0  0  0  0  0  0  0  0  0  0  0
   -0.1740  -50.6437  -16.9683 C   0  0  0  0  0  0  0  0  0  0  0  0
 13 14  1  0  0  0
 14 15  1  0  0  0
 15 16  1  0  0  0
 16 17  1  0  0  0
 17 18  1  0  0  0
 18 19  1  0  0  0
 17 11  1  0  0  0
 11  1  1  0  0  0
  1  2  2  0  0  0
  2  3  1  0  0  0
  3  4  2  0  0  0
  4  5  1  0  0  0
  5  6  2  0  0  0
  6  7  1  0  0  0
  7  8  2  0  0  0
  8 20  1  0  0  0
 20 22  1  0  0  0
 22 23  2  0  0  0
 23 24  1  0  0  0
 24 25  2  0  0  0
 25 29  1  0  0  0
 29 30  1  0  0  0
 30 31  2  0  0  0
 31 32  1  0  0  0
 32 33  2  0  0  0
 33 34  1  0  0  0
 34 35  1  0  0  0
 35 36  2  0  0  0
 36 37  1  0  0  0
 37 38  1  0  0  0
 25 26  1  0  0  0
 26 27  1  0  0  0
 26 28  2  0  0  0
  8  9  1  0  0  0
  9 10  2  0  0  0
 19 14  1  0  0  0
 10  1  1  0  0  0
  9  4  1  0  0  0
 28 22  1  0  0  0
 38 30  1  0  0  0
 38 34  2  0  0  0
 11 12  1  0  0  0
 20 21  1  0  0  0
M  END
> <minimizedAffinity>
-9.06883

> <CNNscore>
0.4110564888

> <CNNaffinity>
7.4750852585

> <CNN_VS>
3.0726823807

> <CNNaffinity_variance>
0.4473961294

$$$$
[H]c1nc(N([H])c2c([H])c([H])c(Oc3c([H])c([H])c([H])c4nc([H])sc34)c(Cl)c2[H])c2c([H])c(N([H])N3C([H])([H])C([H])([H])N(C([H])([H])[H])C([H])([H])C3([H])[H])c([H])c([H])c2n1


 38 43  0  0  0  0  0  0  0  0999 V2000
    0.6175  -49.7147  -16.5547 C   0  0  0  0  0  0  0  0  0  0  0  0
   -0.3226  -49.1384  -15.7373 C   0  0  0  0  0  0  0  0  0  0  0  0
   -1.5482  -49.7054  -15.5066 C   0  0  0  0  0  0  0  0  0  0  0  0
   -1.8842  -50.9124  -16.1094 C   0  0  0  0  0  0  0  0  0  0  0  0
   -3.0531  -51.5049  -15.9210 N   0  0  0  0  0  0  0  0  0  0  0  0
   -3.3743  -52.6668  -16.5008 C   0  0  0  0  0  0  0  0  0  0  0  0
   -2.5014  -53.2657  -17.2995 N   0  0  0  0  0  0  0  0  0  0  0  0
   -1.2847  -52.7460  -17.5571 C   0  0  0  0  0  0  0  0  0  0  0  0
   -0.9554  -51.5302  -16.9474 C   0  0  0  0  0  0  0  0  0  0  0  0
    0.2632  -50.9341  -17.1563 C   0  0  0  0  0  0  0  0  0  0  0  0
    1.8864  -49.1231  -16.7915 N   0  0  0  0  0  0  0  0  0  0  0  0
    2.2793  -48.4484  -16.1040 H   0  0  0  0  0  0  0  0  0  0  0  0
    4.6356  -47.6652  -20.8294 C   0  0  0  0  0  0  0  0  0  0  0  0
    4.3418  -47.7609  -19.4129 N   0  0  0  0  0  0  0  0  0  0  0  0
    4.8353  -48.9306  -18.8004 C   0  0  0  0  0  0  0  0  0  0  0  0
    3.9924  -49.5693  -17.7580 C   0  0  0  0  0  0  0  0  0  0  0  0
    2.5810  -49.4549  -17.9348 N   0  0  0  0  0  0  0  0  0  0  0  0
    2.1772  -48.6815  -19.0757 C   0  0  0  0  0  0  0  0  0  0  0  0
    2.9833  -47.4025  -19.1076 C   0  0  0  0  0  0  0  0  0  0  0  0
   -0.3577  -53.3381  -18.4167 N   0  0  0  0  0  0  0  0  0  0  0  0
    0.4383  -53.9288  -18.0808 H   0  0  0  0  0  0  0  0  0  0  0  0
   -0.4296  -53.1768  -19.8459 C   0  0  0  0  0  0  0  0  0  0  0  0
   -0.0360  -51.9384  -20.3819 C   0  0  0  0  0  0  0  0  0  0  0  0
   -0.0244  -51.6586  -21.7194 C   0  0  0  0  0  0  0  0  0  0  0  0
   -0.4168  -52.6307  -22.6100 C   0  0  0  0  0  0  0  0  0  0  0  0
   -0.8029  -53.8429  -22.1066 C   0  0  0  0  0  0  0  0  0  0  0  0
   -1.3218  -55.1413  -23.1773 Cl  0  0  0  0  0  0  0  0  0  0  0  0
   -0.8136  -54.1282  -20.7353 C   0  0  0  0  0  0  0  0  0  0  0  0
   -0.4157  -52.3751  -23.9714 O   0  0  0  0  0  0  0  0  0  0  0  0
    0.6533  -52.5087  -24.8198 C   0  0  0  0  0  0  0  0  0  0  0  0
    1.9659  -52.6001  -24.4032 C   0  0  0  0  0  0  0  0  0  0  0  0
    2.8999  -52.7296  -25.4025 C   0  0  0  0  0  0  0  0  0  0  0  0
    2.6283  -52.7732  -26.7459 C   0  0  0  0  0  0  0  0  0  0  0  0
    1.2842  -52.6794  -27.1685 C   0  0  0  0  0  0  0  0  0  0  0  0
    0.8720  -52.7056  -28.4049 N   0  0  0  0  0  0  0  0  0  0  0  0
   -0.4170  -52.6090  -28.6773 C   0  0  0  0  0  0  0  0  0  0  0  0
   -1.1005  -52.4729  -27.1147 S   0  0  0  0  0  0  0  0  0  0  0  0
    0.3351  -52.5497  -26.1902 C   0  0  0  0  0  0  0  0  0  0  0  0
 13 14  1  0  0  0
 14 15  1  0  0  0
 15 16  1  0  0  0
 16 17  1  0  0  0
 17 18  1  0  0  0
 18 19  1  0  0  0
 17 11  1  0  0  0
 11  1  1  0  0  0
  1  2  2  0  0  0
  2  3  1  0  0  0
  3  4  2  0  0  0
  4  5  1  0  0  0
  5  6  2  0  0  0
  6  7  1  0  0  0
  7  8  2  0  0  0
  8 20  1  0  0  0
 20 22  1  0  0  0
 22 23  2  0  0  0
 23 24  1  0  0  0
 24 25  2  0  0  0
 25 29  1  0  0  0
 29 30  1  0  0  0
 30 31  2  0  0  0
 31 32  1  0  0  0
 32 33  2  0  0  0
 33 34  1  0  0  0
 34 35  1  0  0  0
 35 36  2  0  0  0
 36 37  1  0  0  0
 37 38  1  0  0  0
 25 26  1  0  0  0
 26 27  1  0  0  0
 26 28  2  0  0  0
  8  9  1  0  0  0
  9 10  2  0  0  0
 19 14  1  0  0  0
 10  1  1  0  0  0
  9  4  1  0  0  0
 28 22  1  0  0  0
 38 30  1  0  0  0
 38 34  2  0  0  0
 11 12  1  0  0  0
 20 21  1  0  0  0
M  END
> <minimizedAffinity>
-9.13879

> <CNNscore>
0.2804072797

> <CNNaffinity>
7.3490819931

> <CNN_VS>
2.0607361794

> <CNNaffinity_variance>
0.1292691082

$$$$
[H]c1nc(N([H])c2c([H])c([H])c(Oc3c([H])c([H])c([H])c4nc([H])sc34)c(Cl)c2[H])c2c([H])c(N([H])N3C([H])([H])C([H])([H])N(C([H])([H])[H])C([H])([H])C3([H])[H])c([H])c([H])c2n1


 38 43  0  0  0  0  0  0  0  0999 V2000
    3.5595  -52.1824  -25.2782 C   0  0  0  0  0  0  0  0  0  0  0  0
    3.3232  -51.7491  -26.5590 C   0  0  0  0  0  0  0  0  0  0  0  0
    2.0753  -51.7605  -27.1243 C   0  0  0  0  0  0  0  0  0  0  0  0
    0.9836  -52.2233  -26.3982 C   0  0  0  0  0  0  0  0  0  0  0  0
   -0.2435  -52.2556  -26.8943 N   0  0  0  0  0  0  0  0  0  0  0  0
   -1.2929  -52.7000  -26.1940 C   0  0  0  0  0  0  0  0  0  0  0  0
   -1.1190  -53.1296  -24.9515 N   0  0  0  0  0  0  0  0  0  0  0  0
    0.0892  -53.1383  -24.3538 C   0  0  0  0  0  0  0  0  0  0  0  0
    1.1826  -52.6722  -25.0923 C   0  0  0  0  0  0  0  0  0  0  0  0
    2.4464  -52.6468  -24.5573 C   0  0  0  0  0  0  0  0  0  0  0  0
    4.8548  -52.1694  -24.6966 N   0  0  0  0  0  0  0  0  0  0  0  0
    5.4172  -53.0440  -24.6661 H   0  0  0  0  0  0  0  0  0  0  0  0
    6.4315  -49.4697  -20.6699 C   0  0  0  0  0  0  0  0  0  0  0  0
    6.4531  -50.6023  -21.5747 N   0  0  0  0  0  0  0  0  0  0  0  0
    7.2548  -50.4104  -22.7181 C   0  0  0  0  0  0  0  0  0  0  0  0
    6.7647  -50.9691  -24.0036 C   0  0  0  0  0  0  0  0  0  0  0  0
    5.3486  -50.9911  -24.1793 N   0  0  0  0  0  0  0  0  0  0  0  0
    4.5941  -50.5184  -23.0524 C   0  0  0  0  0  0  0  0  0  0  0  0
    5.1442  -51.1547  -21.7958 C   0  0  0  0  0  0  0  0  0  0  0  0
    0.3073  -53.6126  -23.0591 N   0  0  0  0  0  0  0  0  0  0  0  0
    0.4835  -54.6209  -22.8410 H   0  0  0  0  0  0  0  0  0  0  0  0
    0.3051  -52.7383  -21.9147 C   0  0  0  0  0  0  0  0  0  0  0  0
    0.1995  -53.3295  -20.6439 C   0  0  0  0  0  0  0  0  0  0  0  0
    0.2158  -52.6239  -19.4739 C   0  0  0  0  0  0  0  0  0  0  0  0
    0.3418  -51.2549  -19.5197 C   0  0  0  0  0  0  0  0  0  0  0  0
    0.4463  -50.6616  -20.7480 C   0  0  0  0  0  0  0  0  0  0  0  0
    0.6086  -48.9142  -20.8959 Cl  0  0  0  0  0  0  0  0  0  0  0  0
    0.4301  -51.3866  -21.9464 C   0  0  0  0  0  0  0  0  0  0  0  0
    0.3608  -50.5137  -18.3496 O   0  0  0  0  0  0  0  0  0  0  0  0
    1.1841  -50.7206  -17.2728 C   0  0  0  0  0  0  0  0  0  0  0  0
    2.5592  -50.6109  -17.3169 C   0  0  0  0  0  0  0  0  0  0  0  0
    3.2143  -50.8561  -16.1344 C   0  0  0  0  0  0  0  0  0  0  0  0
    2.6159  -51.1926  -14.9473 C   0  0  0  0  0  0  0  0  0  0  0  0
    1.2088  -51.3040  -14.9058 C   0  0  0  0  0  0  0  0  0  0  0  0
    0.5011  -51.6145  -13.8560 N   0  0  0  0  0  0  0  0  0  0  0  0
   -0.8152  -51.6882  -13.9407 C   0  0  0  0  0  0  0  0  0  0  0  0
   -1.0870  -51.3012  -15.5850 S   0  0  0  0  0  0  0  0  0  0  0  0
    0.5340  -51.0640  -16.0727 C   0  0  0  0  0  0  0  0  0  0  0  0
 13 14  1  0  0  0
 14 15  1  0  0  0
 15 16  1  0  0  0
 16 17  1  0  0  0
 17 18  1  0  0  0
 18 19  1  0  0  0
 17 11  1  0  0  0
 11  1  1  0  0  0
  1  2  2  0  0  0
  2  3  1  0  0  0
  3  4  2  0  0  0
  4  5  1  0  0  0
  5  6  2  0  0  0
  6  7  1  0  0  0
  7  8  2  0  0  0
  8 20  1  0  0  0
 20 22  1  0  0  0
 22 23  2  0  0  0
 23 24  1  0  0  0
 24 25  2  0  0  0
 25 29  1  0  0  0
 29 30  1  0  0  0
 30 31  2  0  0  0
 31 32  1  0  0  0
 32 33  2  0  0  0
 33 34  1  0  0  0
 34 35  1  0  0  0
 35 36  2  0  0  0
 36 37  1  0  0  0
 37 38  1  0  0  0
 25 26  1  0  0  0
 26 27  1  0  0  0
 26 28  2  0  0  0
  8  9  1  0  0  0
  9 10  2  0  0  0
 19 14  1  0  0  0
 10  1  1  0  0  0
  9  4  1  0  0  0
 28 22  1  0  0  0
 38 30  1  0  0  0
 38 34  2  0  0  0
 11 12  1  0  0  0
 20 21  1  0  0  0
M  END
> <minimizedAffinity>
-8.29343

> <CNNscore>
0.1670449525

> <CNNaffinity>
7.0859284401

> <CNN_VS>
1.1836686134

> <CNNaffinity_variance>
0.2996264398

$$$$
[H]c1nc(N([H])c2c([H])c([H])c(Oc3c([H])c([H])c([H])c4nc([H])sc34)c(Cl)c2[H])c2c([H])c(N([H])N3C([H])([H])C([H])([H])N(C([H])([H])[H])C([H])([H])C3([H])[H])c([H])c([H])c2n1


 38 43  0  0  0  0  0  0  0  0999 V2000
    2.8464  -50.6195  -26.5045 C   0  0  0  0  0  0  0  0  0  0  0  0
    3.4337  -51.4416  -27.4335 C   0  0  0  0  0  0  0  0  0  0  0  0
    2.9164  -52.6650  -27.7694 C   0  0  0  0  0  0  0  0  0  0  0  0
    1.7512  -53.1210  -27.1632 C   0  0  0  0  0  0  0  0  0  0  0  0
    1.2074  -54.2935  -27.4504 N   0  0  0  0  0  0  0  0  0  0  0  0
    0.0855  -54.7303  -26.8672 C   0  0  0  0  0  0  0  0  0  0  0  0
   -0.5218  -53.9741  -25.9629 N   0  0  0  0  0  0  0  0  0  0  0  0
   -0.0502  -52.7648  -25.5996 C   0  0  0  0  0  0  0  0  0  0  0  0
    1.1237  -52.3142  -26.2135 C   0  0  0  0  0  0  0  0  0  0  0  0
    1.6696  -51.0942  -25.9010 C   0  0  0  0  0  0  0  0  0  0  0  0
    3.3865  -49.3525  -26.1589 N   0  0  0  0  0  0  0  0  0  0  0  0
    3.5512  -49.1152  -25.1596 H   0  0  0  0  0  0  0  0  0  0  0  0
    4.5061  -44.5856  -27.5773 C   0  0  0  0  0  0  0  0  0  0  0  0
    4.7091  -45.8079  -26.8244 N   0  0  0  0  0  0  0  0  0  0  0  0
    5.4727  -46.7806  -27.5011 C   0  0  0  0  0  0  0  0  0  0  0  0
    5.0802  -48.2027  -27.3327 C   0  0  0  0  0  0  0  0  0  0  0  0
    3.6860  -48.4529  -27.1594 N   0  0  0  0  0  0  0  0  0  0  0  0
    2.8635  -47.2764  -27.1146 C   0  0  0  0  0  0  0  0  0  0  0  0
    3.5049  -46.2682  -26.1878 C   0  0  0  0  0  0  0  0  0  0  0  0
   -0.6511  -51.9607  -24.6294 N   0  0  0  0  0  0  0  0  0  0  0  0
   -1.3460  -51.2119  -24.8569 H   0  0  0  0  0  0  0  0  0  0  0  0
   -0.3544  -52.1041  -23.2275 C   0  0  0  0  0  0  0  0  0  0  0  0
    0.7377  -51.3819  -22.7160 C   0  0  0  0  0  0  0  0  0  0  0  0
    1.1123  -51.4002  -21.4020 C   0  0  0  0  0  0  0  0  0  0  0  0
    0.3929  -52.1630  -20.5116 C   0  0  0  0  0  0  0  0  0  0  0  0
   -0.6739  -52.8727  -20.9912 C   0  0  0  0  0  0  0  0  0  0  0  0
   -1.6464  -53.8760  -19.9192 Cl  0  0  0  0  0  0  0  0  0  0  0  0
   -1.0569  -52.8522  -22.3384 C   0  0  0  0  0  0  0  0  0  0  0  0
    0.7500  -52.2012  -19.1737 O   0  0  0  0  0  0  0  0  0  0  0  0
    0.7137  -51.1489  -18.2953 C   0  0  0  0  0  0  0  0  0  0  0  0
    1.5590  -50.0596  -18.3564 C   0  0  0  0  0  0  0  0  0  0  0  0
    1.3699  -49.1043  -17.3872 C   0  0  0  0  0  0  0  0  0  0  0  0
    0.4279  -49.1549  -16.3920 C   0  0  0  0  0  0  0  0  0  0  0  0
   -0.4351  -50.2709  -16.3324 C   0  0  0  0  0  0  0  0  0  0  0  0
   -1.3751  -50.4593  -15.4490 N   0  0  0  0  0  0  0  0  0  0  0  0
   -2.1217  -51.5481  -15.4958 C   0  0  0  0  0  0  0  0  0  0  0  0
   -1.4761  -52.3627  -16.8548 S   0  0  0  0  0  0  0  0  0  0  0  0
   -0.2657  -51.2365  -17.2883 C   0  0  0  0  0  0  0  0  0  0  0  0
 13 14  1  0  0  0
 14 15  1  0  0  0
 15 16  1  0  0  0
 16 17  1  0  0  0
 17 18  1  0  0  0
 18 19  1  0  0  0
 17 11  1  0  0  0
 11  1  1  0  0  0
  1  2  2  0  0  0
  2  3  1  0  0  0
  3  4  2  0  0  0
  4  5  1  0  0  0
  5  6  2  0  0  0
  6  7  1  0  0  0
  7  8  2  0  0  0
  8 20  1  0  0  0
 20 22  1  0  0  0
 22 23  2  0  0  0
 23 24  1  0  0  0
 24 25  2  0  0  0
 25 29  1  0  0  0
 29 30  1  0  0  0
 30 31  2  0  0  0
 31 32  1  0  0  0
 32 33  2  0  0  0
 33 34  1  0  0  0
 34 35  1  0  0  0
 35 36  2  0  0  0
 36 37  1  0  0  0
 37 38  1  0  0  0
 25 26  1  0  0  0
 26 27  1  0  0  0
 26 28  2  0  0  0
  8  9  1  0  0  0
  9 10  2  0  0  0
 19 14  1  0  0  0
 10  1  1  0  0  0
  9  4  1  0  0  0
 28 22  1  0  0  0
 38 30  1  0  0  0
 38 34  2  0  0  0
 11 12  1  0  0  0
 20 21  1  0  0  0
M  END
> <minimizedAffinity>
-7.88918

> <CNNscore>
0.1347547472

> <CNNaffinity>
6.9466934204

> <CNN_VS>
0.9360998869

> <CNNaffinity_variance>
0.2227564752

$$$$
[H]c1nc(N([H])c2c([H])c([H])c(Oc3c([H])c([H])c([H])c4nc([H])sc34)c(Cl)c2[H])c2c([H])c(N([H])N3C([H])([H])C([H])([H])N(C([H])([H])[H])C([H])([H])C3([H])[H])c([H])c([H])c2n1


 38 43  0  0  0  0  0  0  0  0999 V2000
    2.7136  -51.1647  -25.4612 C   0  0  0  0  0  0  0  0  0  0  0  0
    1.9240  -51.5037  -26.5315 C   0  0  0  0  0  0  0  0  0  0  0  0
    0.7908  -52.2628  -26.4025 C   0  0  0  0  0  0  0  0  0  0  0  0
    0.3974  -52.7236  -25.1510 C   0  0  0  0  0  0  0  0  0  0  0  0
   -0.6882  -53.4592  -24.9686 N   0  0  0  0  0  0  0  0  0  0  0  0
   -1.0660  -53.9007  -23.7638 C   0  0  0  0  0  0  0  0  0  0  0  0
   -0.3383  -53.6008  -22.6966 N   0  0  0  0  0  0  0  0  0  0  0  0
    0.7841  -52.8585  -22.7742 C   0  0  0  0  0  0  0  0  0  0  0  0
    1.1735  -52.4000  -24.0377 C   0  0  0  0  0  0  0  0  0  0  0  0
    2.3028  -51.6376  -24.2034 C   0  0  0  0  0  0  0  0  0  0  0  0
    3.8878  -50.3783  -25.5998 N   0  0  0  0  0  0  0  0  0  0  0  0
    4.3004  -50.2259  -26.5424 H   0  0  0  0  0  0  0  0  0  0  0  0
    7.6362  -47.6415  -23.4907 C   0  0  0  0  0  0  0  0  0  0  0  0
    6.5401  -47.8658  -24.4127 N   0  0  0  0  0  0  0  0  0  0  0  0
    5.2696  -47.5673  -23.8800 C   0  0  0  0  0  0  0  0  0  0  0  0
    4.1398  -48.4538  -24.2576 C   0  0  0  0  0  0  0  0  0  0  0  0
    4.4645  -49.8262  -24.4762 N   0  0  0  0  0  0  0  0  0  0  0  0
    5.8603  -50.1420  -24.3546 C   0  0  0  0  0  0  0  0  0  0  0  0
    6.6615  -49.1122  -25.1189 C   0  0  0  0  0  0  0  0  0  0  0  0
    1.5860  -52.5527  -21.6732 N   0  0  0  0  0  0  0  0  0  0  0  0
    2.6317  -52.5845  -21.7003 H   0  0  0  0  0  0  0  0  0  0  0  0
    1.0259  -52.1669  -20.4038 C   0  0  0  0  0  0  0  0  0  0  0  0
    1.5122  -50.9902  -19.8082 C   0  0  0  0  0  0  0  0  0  0  0  0
    1.0499  -50.4914  -18.6231 C   0  0  0  0  0  0  0  0  0  0  0  0
    0.0512  -51.1640  -17.9579 C   0  0  0  0  0  0  0  0  0  0  0  0
   -0.4350  -52.3113  -18.5226 C   0  0  0  0  0  0  0  0  0  0  0  0
   -1.7119  -53.2343  -17.7356 Cl  0  0  0  0  0  0  0  0  0  0  0  0
    0.0397  -52.8209  -19.7379 C   0  0  0  0  0  0  0  0  0  0  0  0
   -0.4366  -50.6820  -16.7543 O   0  0  0  0  0  0  0  0  0  0  0  0
    0.1078  -50.8988  -15.5146 C   0  0  0  0  0  0  0  0  0  0  0  0
    0.0707  -52.1096  -14.8533 C   0  0  0  0  0  0  0  0  0  0  0  0
    0.6712  -52.1319  -13.6178 C   0  0  0  0  0  0  0  0  0  0  0  0
    1.2871  -51.0669  -13.0123 C   0  0  0  0  0  0  0  0  0  0  0  0
    1.3232  -49.8295  -13.6916 C   0  0  0  0  0  0  0  0  0  0  0  0
    1.8697  -48.7329  -13.2463 N   0  0  0  0  0  0  0  0  0  0  0  0
    1.8400  -47.6323  -13.9763 C   0  0  0  0  0  0  0  0  0  0  0  0
    0.9984  -48.1546  -15.3714 S   0  0  0  0  0  0  0  0  0  0  0  0
    0.7310  -49.7829  -14.9252 C   0  0  0  0  0  0  0  0  0  0  0  0
 13 14  1  0  0  0
 14 15  1  0  0  0
 15 16  1  0  0  0
 16 17  1  0  0  0
 17 18  1  0  0  0
 18 19  1  0  0  0
 17 11  1  0  0  0
 11  1  1  0  0  0
  1  2  2  0  0  0
  2  3  1  0  0  0
  3  4  2  0  0  0
  4  5  1  0  0  0
  5  6  2  0  0  0
  6  7  1  0  0  0
  7  8  2  0  0  0
  8 20  1  0  0  0
 20 22  1  0  0  0
 22 23  2  0  0  0
 23 24  1  0  0  0
 24 25  2  0  0  0
 25 29  1  0  0  0
 29 30  1  0  0  0
 30 31  2  0  0  0
 31 32  1  0  0  0
 32 33  2  0  0  0
 33 34  1  0  0  0
 34 35  1  0  0  0
 35 36  2  0  0  0
 36 37  1  0  0  0
 37 38  1  0  0  0
 25 26  1  0  0  0
 26 27  1  0  0  0
 26 28  2  0  0  0
  8  9  1  0  0  0
  9 10  2  0  0  0
 19 14  1  0  0  0
 10  1  1  0  0  0
  9  4  1  0  0  0
 28 22  1  0  0  0
 38 30  1  0  0  0
 38 34  2  0  0  0
 11 12  1  0  0  0
 20 21  1  0  0  0
M  END
> <minimizedAffinity>
-6.89286

> <CNNscore>
0.1226264015

> <CNNaffinity>
7.0592398643

> <CNN_VS>
0.8656491637

> <CNNaffinity_variance>
0.2475873530

$$$$
[H]c1nc(N([H])c2c([H])c([H])c(Oc3c([H])c([H])c([H])c4nc([H])sc34)c(Cl)c2[H])c2c([H])c(N([H])N3C([H])([H])C([H])([H])N(C([H])([H])[H])C([H])([H])C3([H])[H])c([H])c([H])c2n1


 38 43  0  0  0  0  0  0  0  0999 V2000
   -0.0324  -51.9289  -20.2729 C   0  0  0  0  0  0  0  0  0  0  0  0
   -0.6621  -52.9954  -19.6813 C   0  0  0  0  0  0  0  0  0  0  0  0
   -1.1284  -54.0673  -20.3959 C   0  0  0  0  0  0  0  0  0  0  0  0
   -0.9731  -54.1069  -21.7770 C   0  0  0  0  0  0  0  0  0  0  0  0
   -1.4032  -55.1176  -22.5163 N   0  0  0  0  0  0  0  0  0  0  0  0
   -1.2520  -55.1548  -23.8449 C   0  0  0  0  0  0  0  0  0  0  0  0
   -0.6498  -54.1495  -24.4657 N   0  0  0  0  0  0  0  0  0  0  0  0
   -0.1759  -53.0741  -23.8055 C   0  0  0  0  0  0  0  0  0  0  0  0
   -0.3377  -53.0418  -22.4159 C   0  0  0  0  0  0  0  0  0  0  0  0
    0.1171  -51.9838  -21.6690 C   0  0  0  0  0  0  0  0  0  0  0  0
    0.4487  -50.8197  -19.5282 N   0  0  0  0  0  0  0  0  0  0  0  0
   -0.1200  -50.4352  -18.7467 H   0  0  0  0  0  0  0  0  0  0  0  0
    4.5262  -48.0792  -18.1675 C   0  0  0  0  0  0  0  0  0  0  0  0
    3.5874  -49.1769  -18.0430 N   0  0  0  0  0  0  0  0  0  0  0  0
    3.9137  -50.3047  -18.8232 C   0  0  0  0  0  0  0  0  0  0  0  0
    2.7964  -51.0477  -19.4592 C   0  0  0  0  0  0  0  0  0  0  0  0
    1.6687  -50.2678  -19.8550 N   0  0  0  0  0  0  0  0  0  0  0  0
    1.7550  -48.8727  -19.5249 C   0  0  0  0  0  0  0  0  0  0  0  0
    2.2190  -48.7386  -18.0920 C   0  0  0  0  0  0  0  0  0  0  0  0
    0.4347  -51.9881  -24.4353 N   0  0  0  0  0  0  0  0  0  0  0  0
   -0.0372  -51.4147  -25.1727 H   0  0  0  0  0  0  0  0  0  0  0  0
    1.7754  -51.5728  -24.1126 C   0  0  0  0  0  0  0  0  0  0  0  0
    1.9549  -50.2604  -23.6422 C   0  0  0  0  0  0  0  0  0  0  0  0
    3.1647  -49.7453  -23.2705 C   0  0  0  0  0  0  0  0  0  0  0  0
    4.2845  -50.5400  -23.3538 C   0  0  0  0  0  0  0  0  0  0  0  0
    4.1291  -51.8207  -23.8091 C   0  0  0  0  0  0  0  0  0  0  0  0
    5.5112  -52.9033  -23.9485 Cl  0  0  0  0  0  0  0  0  0  0  0  0
    2.8880  -52.3472  -24.1891 C   0  0  0  0  0  0  0  0  0  0  0  0
    5.5241  -50.0444  -22.9844 O   0  0  0  0  0  0  0  0  0  0  0  0
    6.2977  -49.1748  -23.7094 C   0  0  0  0  0  0  0  0  0  0  0  0
    6.9060  -49.4929  -24.9067 C   0  0  0  0  0  0  0  0  0  0  0  0
    7.6424  -48.4879  -25.4858 C   0  0  0  0  0  0  0  0  0  0  0  0
    7.8110  -47.2272  -24.9734 C   0  0  0  0  0  0  0  0  0  0  0  0
    7.1872  -46.9052  -23.7481 C   0  0  0  0  0  0  0  0  0  0  0  0
    7.2552  -45.7545  -23.1394 N   0  0  0  0  0  0  0  0  0  0  0  0
    6.6259  -45.5719  -21.9923 C   0  0  0  0  0  0  0  0  0  0  0  0
    5.8923  -47.0975  -21.7436 S   0  0  0  0  0  0  0  0  0  0  0  0
    6.4476  -47.8912  -23.1519 C   0  0  0  0  0  0  0  0  0  0  0  0
 13 14  1  0  0  0
 14 15  1  0  0  0
 15 16  1  0  0  0
 16 17  1  0  0  0
 17 18  1  0  0  0
 18 19  1  0  0  0
 17 11  1  0  0  0
 11  1  1  0  0  0
  1  2  2  0  0  0
  2  3  1  0  0  0
  3  4  2  0  0  0
  4  5  1  0  0  0
  5  6  2  0  0  0
  6  7  1  0  0  0
  7  8  2  0  0  0
  8 20  1  0  0  0
 20 22  1  0  0  0
 22 23  2  0  0  0
 23 24  1  0  0  0
 24 25  2  0  0  0
 25 29  1  0  0  0
 29 30  1  0  0  0
 30 31  2  0  0  0
 31 32  1  0  0  0
 32 33  2  0  0  0
 33 34  1  0  0  0
 34 35  1  0  0  0
 35 36  2  0  0  0
 36 37  1  0  0  0
 37 38  1  0  0  0
 25 26  1  0  0  0
 26 27  1  0  0  0
 26 28  2  0  0  0
  8  9  1  0  0  0
  9 10  2  0  0  0
 19 14  1  0  0  0
 10  1  1  0  0  0
  9  4  1  0  0  0
 28 22  1  0  0  0
 38 30  1  0  0  0
 38 34  2  0  0  0
 11 12  1  0  0  0
 20 21  1  0  0  0
M  END
> <minimizedAffinity>
-7.58413

> <CNNscore>
0.1201153025

> <CNNaffinity>
7.0004949570

> <CNN_VS>
0.8408665657

> <CNNaffinity_variance>
0.1977451593

$$$$
[H]c1nc(N([H])c2c([H])c([H])c(Oc3c([H])c([H])c([H])c4nc([H])sc34)c(Cl)c2[H])c2c([H])c(N([H])N3C([H])([H])C([H])([H])N(C([H])([H])[H])C([H])([H])C3([H])[H])c([H])c([H])c2n1


 38 43  0  0  0  0  0  0  0  0999 V2000
   -0.4146  -53.7172  -22.5012 C   0  0  0  0  0  0  0  0  0  0  0  0
   -1.4581  -54.0075  -21.6581 C   0  0  0  0  0  0  0  0  0  0  0  0
   -1.4906  -53.5928  -20.3528 C   0  0  0  0  0  0  0  0  0  0  0  0
   -0.4401  -52.8466  -19.8305 C   0  0  0  0  0  0  0  0  0  0  0  0
   -0.4200  -52.4195  -18.5775 N   0  0  0  0  0  0  0  0  0  0  0  0
    0.5909  -51.7005  -18.0769 C   0  0  0  0  0  0  0  0  0  0  0  0
    1.6235  -51.3924  -18.8497 N   0  0  0  0  0  0  0  0  0  0  0  0
    1.7003  -51.7786  -20.1388 C   0  0  0  0  0  0  0  0  0  0  0  0
    0.6394  -52.5305  -20.6559 C   0  0  0  0  0  0  0  0  0  0  0  0
    0.6391  -52.9623  -21.9588 C   0  0  0  0  0  0  0  0  0  0  0  0
   -0.3848  -54.1497  -23.8534 N   0  0  0  0  0  0  0  0  0  0  0  0
   -0.6224  -55.1351  -24.0870 H   0  0  0  0  0  0  0  0  0  0  0  0
    0.1105  -53.0551  -28.8077 C   0  0  0  0  0  0  0  0  0  0  0  0
   -0.6204  -53.4728  -27.6273 N   0  0  0  0  0  0  0  0  0  0  0  0
   -1.1577  -52.4079  -26.8762 C   0  0  0  0  0  0  0  0  0  0  0  0
   -1.1401  -52.5321  -25.3966 C   0  0  0  0  0  0  0  0  0  0  0  0
   -0.0401  -53.2511  -24.8400 N   0  0  0  0  0  0  0  0  0  0  0  0
    0.8680  -53.8050  -25.8050 C   0  0  0  0  0  0  0  0  0  0  0  0
    0.0682  -54.4950  -26.8871 C   0  0  0  0  0  0  0  0  0  0  0  0
    2.7878  -51.4951  -20.9669 N   0  0  0  0  0  0  0  0  0  0  0  0
    3.6368  -52.1043  -21.0253 H   0  0  0  0  0  0  0  0  0  0  0  0
    2.8215  -50.3290  -21.8113 C   0  0  0  0  0  0  0  0  0  0  0  0
    2.7693  -49.0710  -21.1864 C   0  0  0  0  0  0  0  0  0  0  0  0
    2.8239  -47.8843  -21.8617 C   0  0  0  0  0  0  0  0  0  0  0  0
    2.9363  -47.8990  -23.2326 C   0  0  0  0  0  0  0  0  0  0  0  0
    2.9891  -49.1144  -23.8584 C   0  0  0  0  0  0  0  0  0  0  0  0
    3.1306  -49.2225  -25.6105 Cl  0  0  0  0  0  0  0  0  0  0  0  0
    2.9336  -50.3299  -23.1645 C   0  0  0  0  0  0  0  0  0  0  0  0
    2.9932  -46.7115  -23.9435 O   0  0  0  0  0  0  0  0  0  0  0  0
    4.1038  -46.1825  -24.5494 C   0  0  0  0  0  0  0  0  0  0  0  0
    5.3323  -46.0499  -23.9346 C   0  0  0  0  0  0  0  0  0  0  0  0
    6.3266  -45.4963  -24.7044 C   0  0  0  0  0  0  0  0  0  0  0  0
    6.1889  -45.0781  -26.0031 C   0  0  0  0  0  0  0  0  0  0  0  0
    4.9305  -45.2152  -26.6290 C   0  0  0  0  0  0  0  0  0  0  0  0
    4.6472  -44.8649  -27.8522 N   0  0  0  0  0  0  0  0  0  0  0  0
    3.4281  -45.0435  -28.3287 C   0  0  0  0  0  0  0  0  0  0  0  0
    2.6235  -45.7433  -26.9907 S   0  0  0  0  0  0  0  0  0  0  0  0
    3.9237  -45.7647  -25.8813 C   0  0  0  0  0  0  0  0  0  0  0  0
 13 14  1  0  0  0
 14 15  1  0  0  0
 15 16  1  0  0  0
 16 17  1  0  0  0
 17 18  1  0  0  0
 18 19  1  0  0  0
 17 11  1  0  0  0
 11  1  1  0  0  0
  1  2  2  0  0  0
  2  3  1  0  0  0
  3  4  2  0  0  0
  4  5  1  0  0  0
  5  6  2  0  0  0
  6  7  1  0  0  0
  7  8  2  0  0  0
  8 20  1  0  0  0
 20 22  1  0  0  0
 22 23  2  0  0  0
 23 24  1  0  0  0
 24 25  2  0  0  0
 25 29  1  0  0  0
 29 30  1  0  0  0
 30 31  2  0  0  0
 31 32  1  0  0  0
 32 33  2  0  0  0
 33 34  1  0  0  0
 34 35  1  0  0  0
 35 36  2  0  0  0
 36 37  1  0  0  0
 37 38  1  0  0  0
 25 26  1  0  0  0
 26 27  1  0  0  0
 26 28  2  0  0  0
  8  9  1  0  0  0
  9 10  2  0  0  0
 19 14  1  0  0  0
 10  1  1  0  0  0
  9  4  1  0  0  0
 28 22  1  0  0  0
 38 30  1  0  0  0
 38 34  2  0  0  0
 11 12  1  0  0  0
 20 21  1  0  0  0
M  END
> <minimizedAffinity>
-8.05539

> <CNNscore>
0.1138941646

> <CNNaffinity>
6.9030175209

> <CNN_VS>
0.7862133980

> <CNNaffinity_variance>
0.3698028326

$$$$
[H]c1nc(N([H])c2c([H])c([H])c(Oc3c([H])c([H])c([H])c4nc([H])sc34)c(Cl)c2[H])c2c([H])c(N([H])N3C([H])([H])C([H])([H])N(C([H])([H])[H])C([H])([H])C3([H])[H])c([H])c([H])c2n1


 38 43  0  0  0  0  0  0  0  0999 V2000
    0.1647  -53.3516  -22.6497 C   0  0  0  0  0  0  0  0  0  0  0  0
   -1.0219  -53.9217  -22.2615 C   0  0  0  0  0  0  0  0  0  0  0  0
   -1.5130  -53.8106  -20.9874 C   0  0  0  0  0  0  0  0  0  0  0  0
   -0.8052  -53.0987  -20.0255 C   0  0  0  0  0  0  0  0  0  0  0  0
   -1.2331  -52.9587  -18.7804 N   0  0  0  0  0  0  0  0  0  0  0  0
   -0.5515  -52.2724  -17.8565 C   0  0  0  0  0  0  0  0  0  0  0  0
    0.6009  -51.7015  -18.1799 N   0  0  0  0  0  0  0  0  0  0  0  0
    1.1241  -51.7842  -19.4194 C   0  0  0  0  0  0  0  0  0  0  0  0
    0.4058  -52.5039  -20.3809 C   0  0  0  0  0  0  0  0  0  0  0  0
    0.8682  -52.6353  -21.6666 C   0  0  0  0  0  0  0  0  0  0  0  0
    0.6703  -53.4699  -23.9714 N   0  0  0  0  0  0  0  0  0  0  0  0
    1.6939  -53.3989  -24.1423 H   0  0  0  0  0  0  0  0  0  0  0  0
   -0.7200  -52.5461  -28.7883 C   0  0  0  0  0  0  0  0  0  0  0  0
    0.1952  -52.9827  -27.7520 N   0  0  0  0  0  0  0  0  0  0  0  0
    0.0427  -54.3341  -27.3813 C   0  0  0  0  0  0  0  0  0  0  0  0
    0.2045  -54.6761  -25.9454 C   0  0  0  0  0  0  0  0  0  0  0  0
   -0.2090  -53.6788  -25.0121 N   0  0  0  0  0  0  0  0  0  0  0  0
   -0.6722  -52.4548  -25.6037 C   0  0  0  0  0  0  0  0  0  0  0  0
    0.3041  -52.0327  -26.6784 C   0  0  0  0  0  0  0  0  0  0  0  0
    2.3487  -51.2197  -19.7805 N   0  0  0  0  0  0  0  0  0  0  0  0
    3.2669  -51.5598  -19.4109 H   0  0  0  0  0  0  0  0  0  0  0  0
    2.4391  -50.1140  -20.6988 C   0  0  0  0  0  0  0  0  0  0  0  0
    1.5535  -49.0385  -20.5119 C   0  0  0  0  0  0  0  0  0  0  0  0
    1.5496  -47.9139  -21.2881 C   0  0  0  0  0  0  0  0  0  0  0  0
    2.4561  -47.8078  -22.3172 C   0  0  0  0  0  0  0  0  0  0  0  0
    3.3266  -48.8448  -22.5140 C   0  0  0  0  0  0  0  0  0  0  0  0
    4.5174  -48.7904  -23.8104 Cl  0  0  0  0  0  0  0  0  0  0  0  0
    3.3296  -49.9966  -21.7170 C   0  0  0  0  0  0  0  0  0  0  0  0
    2.4748  -46.6796  -23.1207 O   0  0  0  0  0  0  0  0  0  0  0  0
    3.5625  -45.8844  -23.3753 C   0  0  0  0  0  0  0  0  0  0  0  0
    3.9931  -45.5433  -24.6415 C   0  0  0  0  0  0  0  0  0  0  0  0
    5.1036  -44.7361  -24.6953 C   0  0  0  0  0  0  0  0  0  0  0  0
    5.7947  -44.2589  -23.6113 C   0  0  0  0  0  0  0  0  0  0  0  0
    5.3514  -44.6099  -22.3174 C   0  0  0  0  0  0  0  0  0  0  0  0
    5.9024  -44.2353  -21.1969 N   0  0  0  0  0  0  0  0  0  0  0  0
    5.3948  -44.6297  -20.0429 C   0  0  0  0  0  0  0  0  0  0  0  0
    4.0662  -45.5827  -20.5470 S   0  0  0  0  0  0  0  0  0  0  0  0
    4.2460  -45.4139  -22.2385 C   0  0  0  0  0  0  0  0  0  0  0  0
 13 14  1  0  0  0
 14 15  1  0  0  0
 15 16  1  0  0  0
 16 17  1  0  0  0
 17 18  1  0  0  0
 18 19  1  0  0  0
 17 11  1  0  0  0
 11  1  1  0  0  0
  1  2  2  0  0  0
  2  3  1  0  0  0
  3  4  2  0  0  0
  4  5  1  0  0  0
  5  6  2  0  0  0
  6  7  1  0  0  0
  7  8  2  0  0  0
  8 20  1  0  0  0
 20 22  1  0  0  0
 22 23  2  0  0  0
 23 24  1  0  0  0
 24 25  2  0  0  0
 25 29  1  0  0  0
 29 30  1  0  0  0
 30 31  2  0  0  0
 31 32  1  0  0  0
 32 33  2  0  0  0
 33 34  1  0  0  0
 34 35  1  0  0  0
 35 36  2  0  0  0
 36 37  1  0  0  0
 37 38  1  0  0  0
 25 26  1  0  0  0
 26 27  1  0  0  0
 26 28  2  0  0  0
  8  9  1  0  0  0
  9 10  2  0  0  0
 19 14  1  0  0  0
 10  1  1  0  0  0
  9  4  1  0  0  0
 28 22  1  0  0  0
 38 30  1  0  0  0
 38 34  2  0  0  0
 11 12  1  0  0  0
 20 21  1  0  0  0
M  END
> <minimizedAffinity>
-7.66575

> <CNNscore>
0.0970661938

> <CNNaffinity>
6.9011940956

> <CNN_VS>
0.6698726416

> <CNNaffinity_variance>
0.1734661907

$$$$
[H]c1nc(N([H])c2c([H])c([H])c(Oc3c([H])c([H])c([H])c4nc([H])sc34)c(Cl)c2[H])c2c([H])c(N([H])N3C([H])([H])C([H])([H])N(C([H])([H])[H])C([H])([H])C3([H])[H])c([H])c([H])c2n1


 38 43  0  0  0  0  0  0  0  0999 V2000
    2.8155  -51.1934  -25.2319 C   0  0  0  0  0  0  0  0  0  0  0  0
    1.9255  -51.6492  -26.1721 C   0  0  0  0  0  0  0  0  0  0  0  0
    0.7802  -52.3236  -25.8395 C   0  0  0  0  0  0  0  0  0  0  0  0
    0.4784  -52.5722  -24.5053 C   0  0  0  0  0  0  0  0  0  0  0  0
   -0.6140  -53.2177  -24.1275 N   0  0  0  0  0  0  0  0  0  0  0  0
   -0.9036  -53.4551  -22.8433 C   0  0  0  0  0  0  0  0  0  0  0  0
   -0.0769  -53.0353  -21.8953 N   0  0  0  0  0  0  0  0  0  0  0  0
    1.0613  -52.3692  -22.1738 C   0  0  0  0  0  0  0  0  0  0  0  0
    1.3581  -52.1245  -23.5192 C   0  0  0  0  0  0  0  0  0  0  0  0
    2.4965  -51.4521  -23.8881 C   0  0  0  0  0  0  0  0  0  0  0  0
    4.0018  -50.4955  -25.5812 N   0  0  0  0  0  0  0  0  0  0  0  0
    4.6647  -50.9120  -26.2661 H   0  0  0  0  0  0  0  0  0  0  0  0
    6.3696  -45.9835  -25.7367 C   0  0  0  0  0  0  0  0  0  0  0  0
    5.4991  -47.0221  -26.2520 N   0  0  0  0  0  0  0  0  0  0  0  0
    4.1666  -46.9327  -25.8008 C   0  0  0  0  0  0  0  0  0  0  0  0
    3.4541  -48.2014  -25.5048 C   0  0  0  0  0  0  0  0  0  0  0  0
    4.2565  -49.2700  -25.0040 N   0  0  0  0  0  0  0  0  0  0  0  0
    5.6598  -48.9784  -24.9129 C   0  0  0  0  0  0  0  0  0  0  0  0
    6.1065  -48.3243  -26.2009 C   0  0  0  0  0  0  0  0  0  0  0  0
    1.9650  -51.9422  -21.1991 N   0  0  0  0  0  0  0  0  0  0  0  0
    2.9958  -51.8718  -21.3660 H   0  0  0  0  0  0  0  0  0  0  0  0
    1.5396  -51.5635  -19.8764 C   0  0  0  0  0  0  0  0  0  0  0  0
    0.3597  -52.1447  -19.3807 C   0  0  0  0  0  0  0  0  0  0  0  0
   -0.1420  -51.8999  -18.1335 C   0  0  0  0  0  0  0  0  0  0  0  0
    0.5308  -51.0380  -17.2988 C   0  0  0  0  0  0  0  0  0  0  0  0
    1.6818  -50.4630  -17.7639 C   0  0  0  0  0  0  0  0  0  0  0  0
    2.6028  -49.3464  -16.7606 Cl  0  0  0  0  0  0  0  0  0  0  0  0
    2.1949  -50.7156  -19.0426 C   0  0  0  0  0  0  0  0  0  0  0  0
    0.0454  -50.7706  -16.0293 O   0  0  0  0  0  0  0  0  0  0  0  0
   -0.8638  -49.7992  -15.6976 C   0  0  0  0  0  0  0  0  0  0  0  0
   -0.5519  -48.4621  -15.5571 C   0  0  0  0  0  0  0  0  0  0  0  0
   -1.5990  -47.6388  -15.2202 C   0  0  0  0  0  0  0  0  0  0  0  0
   -2.8948  -48.0398  -15.0194 C   0  0  0  0  0  0  0  0  0  0  0  0
   -3.2103  -49.4086  -15.1639 C   0  0  0  0  0  0  0  0  0  0  0  0
   -4.3911  -49.9378  -15.0057 N   0  0  0  0  0  0  0  0  0  0  0  0
   -4.5636  -51.2373  -15.1686 C   0  0  0  0  0  0  0  0  0  0  0  0
   -2.9831  -51.7576  -15.5673 S   0  0  0  0  0  0  0  0  0  0  0  0
   -2.1827  -50.2488  -15.4995 C   0  0  0  0  0  0  0  0  0  0  0  0
 13 14  1  0  0  0
 14 15  1  0  0  0
 15 16  1  0  0  0
 16 17  1  0  0  0
 17 18  1  0  0  0
 18 19  1  0  0  0
 17 11  1  0  0  0
 11  1  1  0  0  0
  1  2  2  0  0  0
  2  3  1  0  0  0
  3  4  2  0  0  0
  4  5  1  0  0  0
  5  6  2  0  0  0
  6  7  1  0  0  0
  7  8  2  0  0  0
  8 20  1  0  0  0
 20 22  1  0  0  0
 22 23  2  0  0  0
 23 24  1  0  0  0
 24 25  2  0  0  0
 25 29  1  0  0  0
 29 30  1  0  0  0
 30 31  2  0  0  0
 31 32  1  0  0  0
 32 33  2  0  0  0
 33 34  1  0  0  0
 34 35  1  0  0  0
 35 36  2  0  0  0
 36 37  1  0  0  0
 37 38  1  0  0  0
 25 26  1  0  0  0
 26 27  1  0  0  0
 26 28  2  0  0  0
  8  9  1  0  0  0
  9 10  2  0  0  0
 19 14  1  0  0  0
 10  1  1  0  0  0
  9  4  1  0  0  0
 28 22  1  0  0  0
 38 30  1  0  0  0
 38 34  2  0  0  0
 11 12  1  0  0  0
 20 21  1  0  0  0
M  END
> <minimizedAffinity>
-7.28931

> <CNNscore>
0.0960359350

> <CNNaffinity>
6.8509383202

> <CNN_VS>
0.6579362750

> <CNNaffinity_variance>
0.3612422645

$$$$
[H]C([H])=C([H])C(=O)N1C([H])([H])C([H])([H])C([H])([H])[C@@]([H])(n2nc(C(=O)N([H])c3c([H])c(Cl)c(OC(=O)N(C([H])([H])[H])C([H])([H])[H])c([H])c3Cl)c3c(N([H])[H])nc([H])nc32)C1([H])[H]


 40 43  0  0  0  0  0  0  0  0999 V2000
    0.1714  -52.8337  -22.1984 C   0  0  0  0  0  0  0  0  0  0  0  0
    1.2613  -52.0388  -22.4098 N   0  0  0  0  0  0  0  0  0  0  0  0
    1.7942  -52.2229  -23.5737 N   0  0  0  0  0  0  0  0  0  0  0  0
    1.0408  -53.1784  -24.1822 C   0  0  0  0  0  0  0  0  0  0  0  0
    1.1209  -53.7509  -25.3891 N   0  0  0  0  0  0  0  0  0  0  0  0
    0.2445  -54.6835  -25.7921 C   0  0  0  0  0  0  0  0  0  0  0  0
   -0.7437  -55.0614  -24.9731 N   0  0  0  0  0  0  0  0  0  0  0  0
   -0.9001  -54.5283  -23.7214 C   0  0  0  0  0  0  0  0  0  0  0  0
   -1.9952  -54.9719  -22.9334 N   0  0  0  0  0  0  0  0  0  0  0  0
    0.0038  -53.5757  -23.3188 C   0  0  0  0  0  0  0  0  0  0  0  0
   -2.8638  -54.3728  -22.9601 H   0  0  0  0  0  0  0  0  0  0  0  0
   -1.9720  -55.8608  -22.3557 H   0  0  0  0  0  0  0  0  0  0  0  0
    2.9380  -51.6170  -24.2163 C   0  0  0  0  0  0  0  0  0  0  0  0
    4.2073  -52.2253  -23.6338 C   0  0  0  0  0  0  0  0  0  0  0  0
    5.4368  -51.6977  -24.3489 C   0  0  0  0  0  0  0  0  0  0  0  0
    5.1422  -50.3106  -24.9321 C   0  0  0  0  0  0  0  0  0  0  0  0
    4.3231  -49.6570  -23.9837 N   0  0  0  0  0  0  0  0  0  0  0  0
    2.8935  -50.1057  -24.0372 C   0  0  0  0  0  0  0  0  0  0  0  0
    4.6636  -48.7358  -23.0181 C   0  0  0  0  0  0  0  0  0  0  0  0
    3.6515  -48.2057  -22.3212 O   0  0  0  0  0  0  0  0  0  0  0  0
    5.9215  -48.2376  -22.6180 C   0  0  0  0  0  0  0  0  0  0  0  0
    6.8954  -48.8536  -22.0293 C   0  0  0  0  0  0  0  0  0  0  0  0
    0.0008  -52.3238  -19.7870 N   0  0  0  0  0  0  0  0  0  0  0  0
   -0.6238  -52.8020  -20.9678 C   0  0  0  0  0  0  0  0  0  0  0  0
   -1.7940  -53.1699  -20.9347 O   0  0  0  0  0  0  0  0  0  0  0  0
    1.0242  -52.0243  -19.9065 H   0  0  0  0  0  0  0  0  0  0  0  0
   -1.5811  -51.8818  -15.8870 C   0  0  0  0  0  0  0  0  0  0  0  0
   -0.3861  -51.3255  -16.2475 C   0  0  0  0  0  0  0  0  0  0  0  0
    0.1113  -51.4781  -17.5150 C   0  0  0  0  0  0  0  0  0  0  0  0
    1.6431  -50.7586  -17.9597 Cl  0  0  0  0  0  0  0  0  0  0  0  0
   -0.5616  -52.2052  -18.5157 C   0  0  0  0  0  0  0  0  0  0  0  0
   -1.7541  -52.7480  -18.1200 C   0  0  0  0  0  0  0  0  0  0  0  0
   -2.2771  -52.5984  -16.8192 C   0  0  0  0  0  0  0  0  0  0  0  0
   -3.8194  -53.3316  -16.3978 Cl  0  0  0  0  0  0  0  0  0  0  0  0
   -2.1144  -51.7480  -14.6147 O   0  0  0  0  0  0  0  0  0  0  0  0
   -4.2972  -52.3950  -12.8999 C   0  0  0  0  0  0  0  0  0  0  0  0
   -4.1770  -51.0737  -13.4549 N   0  0  0  0  0  0  0  0  0  0  0  0
   -5.1412  -50.0360  -13.1714 C   0  0  0  0  0  0  0  0  0  0  0  0
   -3.0646  -50.7825  -14.3151 C   0  0  0  0  0  0  0  0  0  0  0  0
   -2.9108  -49.6449  -14.8271 O   0  0  0  0  0  0  0  0  0  0  0  0
 36 37  1  0  0  0
 37 38  1  0  0  0
 37 39  1  0  0  0
 39 40  2  0  0  0
 39 35  1  0  0  0
 35 27  1  0  0  0
 27 28  2  0  0  0
 28 29  1  0  0  0
 29 30  1  0  0  0
 29 31  2  0  0  0
 31 23  1  0  0  0
 23 24  1  0  0  0
 24 25  2  0  0  0
 24  1  1  0  0  0
  1  2  2  0  0  0
  2  3  1  0  0  0
  3 13  1  0  0  0
 13 14  1  0  0  0
 14 15  1  0  0  0
 15 16  1  0  0  0
 16 17  1  0  0  0
 17 18  1  0  0  0
 17 19  1  0  0  0
 19 20  2  0  0  0
 19 21  1  0  0  0
 21 22  2  0  0  0
  3  4  1  0  0  0
  4  5  2  0  0  0
  5  6  1  0  0  0
  6  7  2  0  0  0
  7  8  1  0  0  0
  8  9  1  0  0  0
  8 10  2  0  0  0
 31 32  1  0  0  0
 32 33  2  0  0  0
 33 34  1  0  0  0
 33 27  1  0  0  0
 10  1  1  0  0  0
 18 13  1  0  0  0
 10  4  1  0  0  0
 23 26  1  0  0  0
  9 11  1  0  0  0
  9 12  1  0  0  0
M  END
> <minimizedAffinity>
-7.59146

> <CNNscore>
0.6240701079

> <CNNaffinity>
7.5874695778

> <CNN_VS>
4.7351131439

> <CNNaffinity_variance>
0.1235215887

$$$$
[H]C([H])=C([H])C(=O)N1C([H])([H])C([H])([H])C([H])([H])[C@@]([H])(n2nc(C(=O)N([H])c3c([H])c(Cl)c(OC(=O)N(C([H])([H])[H])C([H])([H])[H])c([H])c3Cl)c3c(N([H])[H])nc([H])nc32)C1([H])[H]


 40 43  0  0  0  0  0  0  0  0999 V2000
    1.1267  -52.3782  -21.1039 C   0  0  0  0  0  0  0  0  0  0  0  0
    1.9182  -51.9563  -22.1334 N   0  0  0  0  0  0  0  0  0  0  0  0
    1.5768  -52.4731  -23.2686 N   0  0  0  0  0  0  0  0  0  0  0  0
    0.5115  -53.2780  -23.0070 C   0  0  0  0  0  0  0  0  0  0  0  0
   -0.2471  -54.0475  -23.7964 N   0  0  0  0  0  0  0  0  0  0  0  0
   -1.2753  -54.7624  -23.3147 C   0  0  0  0  0  0  0  0  0  0  0  0
   -1.5617  -54.7134  -22.0087 N   0  0  0  0  0  0  0  0  0  0  0  0
   -0.8378  -53.9529  -21.1295 C   0  0  0  0  0  0  0  0  0  0  0  0
   -1.2330  -53.9425  -19.7654 N   0  0  0  0  0  0  0  0  0  0  0  0
    0.2135  -53.2266  -21.6333 C   0  0  0  0  0  0  0  0  0  0  0  0
   -1.8545  -53.1442  -19.4645 H   0  0  0  0  0  0  0  0  0  0  0  0
   -0.9471  -54.6926  -19.0726 H   0  0  0  0  0  0  0  0  0  0  0  0
    2.1183  -52.3182  -24.5994 C   0  0  0  0  0  0  0  0  0  0  0  0
    1.6123  -51.0064  -25.1854 C   0  0  0  0  0  0  0  0  0  0  0  0
    2.2355  -50.7452  -26.5436 C   0  0  0  0  0  0  0  0  0  0  0  0
    2.6254  -52.0750  -27.1997 C   0  0  0  0  0  0  0  0  0  0  0  0
    1.6045  -52.9905  -26.8573 N   0  0  0  0  0  0  0  0  0  0  0  0
    1.7336  -53.5148  -25.4587 C   0  0  0  0  0  0  0  0  0  0  0  0
    0.5180  -53.4075  -27.5939 C   0  0  0  0  0  0  0  0  0  0  0  0
   -0.2350  -54.3695  -27.0472 O   0  0  0  0  0  0  0  0  0  0  0  0
    0.0405  -52.9912  -28.8546 C   0  0  0  0  0  0  0  0  0  0  0  0
   -1.1392  -52.5743  -29.1851 C   0  0  0  0  0  0  0  0  0  0  0  0
    0.2510  -51.1463  -19.1496 N   0  0  0  0  0  0  0  0  0  0  0  0
    1.2917  -51.9235  -19.7205 C   0  0  0  0  0  0  0  0  0  0  0  0
    2.2873  -52.1946  -19.0564 O   0  0  0  0  0  0  0  0  0  0  0  0
   -0.5806  -50.9564  -19.8005 H   0  0  0  0  0  0  0  0  0  0  0  0
    0.1817  -49.4209  -15.2860 C   0  0  0  0  0  0  0  0  0  0  0  0
    0.9084  -48.8749  -16.3065 C   0  0  0  0  0  0  0  0  0  0  0  0
    0.9193  -49.4463  -17.5517 C   0  0  0  0  0  0  0  0  0  0  0  0
    1.8552  -48.7336  -18.8470 Cl  0  0  0  0  0  0  0  0  0  0  0  0
    0.1959  -50.6143  -17.8609 C   0  0  0  0  0  0  0  0  0  0  0  0
   -0.5199  -51.1335  -16.8162 C   0  0  0  0  0  0  0  0  0  0  0  0
   -0.5396  -50.5553  -15.5304 C   0  0  0  0  0  0  0  0  0  0  0  0
   -1.4889  -51.2917  -14.2456 Cl  0  0  0  0  0  0  0  0  0  0  0  0
    0.1475  -48.8702  -14.0146 O   0  0  0  0  0  0  0  0  0  0  0  0
    1.6634  -46.5539  -13.3357 C   0  0  0  0  0  0  0  0  0  0  0  0
    0.2284  -46.4877  -13.4053 N   0  0  0  0  0  0  0  0  0  0  0  0
   -0.4931  -45.2650  -13.1386 C   0  0  0  0  0  0  0  0  0  0  0  0
   -0.5036  -47.6740  -13.7503 C   0  0  0  0  0  0  0  0  0  0  0  0
   -1.7583  -47.6726  -13.8255 O   0  0  0  0  0  0  0  0  0  0  0  0
 36 37  1  0  0  0
 37 38  1  0  0  0
 37 39  1  0  0  0
 39 40  2  0  0  0
 39 35  1  0  0  0
 35 27  1  0  0  0
 27 28  2  0  0  0
 28 29  1  0  0  0
 29 30  1  0  0  0
 29 31  2  0  0  0
 31 23  1  0  0  0
 23 24  1  0  0  0
 24 25  2  0  0  0
 24  1  1  0  0  0
  1  2  2  0  0  0
  2  3  1  0  0  0
  3 13  1  0  0  0
 13 14  1  0  0  0
 14 15  1  0  0  0
 15 16  1  0  0  0
 16 17  1  0  0  0
 17 18  1  0  0  0
 17 19  1  0  0  0
 19 20  2  0  0  0
 19 21  1  0  0  0
 21 22  2  0  0  0
  3  4  1  0  0  0
  4  5  2  0  0  0
  5  6  1  0  0  0
  6  7  2  0  0  0
  7  8  1  0  0  0
  8  9  1  0  0  0
  8 10  2  0  0  0
 31 32  1  0  0  0
 32 33  2  0  0  0
 33 34  1  0  0  0
 33 27  1  0  0  0
 10  1  1  0  0  0
 18 13  1  0  0  0
 10  4  1  0  0  0
 23 26  1  0  0  0
  9 11  1  0  0  0
  9 12  1  0  0  0
M  END
> <minimizedAffinity>
-8.97385

> <CNNscore>
0.6219226718

> <CNNaffinity>
7.5158247948

> <CNN_VS>
4.6742620468

> <CNNaffinity_variance>
0.2050730437

$$$$
[H]C([H])=C([H])C(=O)N1C([H])([H])C([H])([H])C([H])([H])[C@@]([H])(n2nc(C(=O)N([H])c3c([H])c(Cl)c(OC(=O)N(C([H])([H])[H])C([H])([H])[H])c([H])c3Cl)c3c(N([H])[H])nc([H])nc32)C1([H])[H]


 40 43  0  0  0  0  0  0  0  0999 V2000
    1.0478  -52.4369  -21.4100 C   0  0  0  0  0  0  0  0  0  0  0  0
    1.7100  -51.9878  -22.5165 N   0  0  0  0  0  0  0  0  0  0  0  0
    1.2673  -52.5161  -23.6107 N   0  0  0  0  0  0  0  0  0  0  0  0
    0.2642  -53.3571  -23.2401 C   0  0  0  0  0  0  0  0  0  0  0  0
   -0.5476  -54.1522  -23.9469 N   0  0  0  0  0  0  0  0  0  0  0  0
   -1.4934  -54.9021  -23.3610 C   0  0  0  0  0  0  0  0  0  0  0  0
   -1.6403  -54.8631  -22.0318 N   0  0  0  0  0  0  0  0  0  0  0  0
   -0.8532  -54.0782  -21.2319 C   0  0  0  0  0  0  0  0  0  0  0  0
   -1.1007  -54.0815  -19.8335 N   0  0  0  0  0  0  0  0  0  0  0  0
    0.1129  -53.3162  -21.8422 C   0  0  0  0  0  0  0  0  0  0  0  0
   -1.7135  -53.3051  -19.4650 H   0  0  0  0  0  0  0  0  0  0  0  0
   -0.7170  -54.8214  -19.1779 H   0  0  0  0  0  0  0  0  0  0  0  0
    1.6582  -52.3425  -24.9912 C   0  0  0  0  0  0  0  0  0  0  0  0
    3.0854  -52.8460  -25.1639 C   0  0  0  0  0  0  0  0  0  0  0  0
    3.5084  -52.7821  -26.6194 C   0  0  0  0  0  0  0  0  0  0  0  0
    2.7164  -51.6861  -27.3421 C   0  0  0  0  0  0  0  0  0  0  0  0
    2.5818  -50.6287  -26.4139 N   0  0  0  0  0  0  0  0  0  0  0  0
    1.5149  -50.8804  -25.3910 C   0  0  0  0  0  0  0  0  0  0  0  0
    3.3103  -49.4657  -26.2984 C   0  0  0  0  0  0  0  0  0  0  0  0
    2.8888  -48.5909  -25.3774 O   0  0  0  0  0  0  0  0  0  0  0  0
    4.4538  -49.0178  -26.9931 C   0  0  0  0  0  0  0  0  0  0  0  0
    4.5383  -48.4757  -28.1651 C   0  0  0  0  0  0  0  0  0  0  0  0
    0.3850  -51.1534  -19.4058 N   0  0  0  0  0  0  0  0  0  0  0  0
    1.3438  -51.9768  -20.0504 C   0  0  0  0  0  0  0  0  0  0  0  0
    2.3793  -52.2818  -19.4669 O   0  0  0  0  0  0  0  0  0  0  0  0
   -0.4892  -50.9360  -19.9887 H   0  0  0  0  0  0  0  0  0  0  0  0
    0.6903  -49.3842  -15.5736 C   0  0  0  0  0  0  0  0  0  0  0  0
    1.2671  -48.8196  -16.6763 C   0  0  0  0  0  0  0  0  0  0  0  0
    1.1580  -49.4056  -17.9100 C   0  0  0  0  0  0  0  0  0  0  0  0
    1.9026  -48.6687  -19.3115 Cl  0  0  0  0  0  0  0  0  0  0  0  0
    0.4570  -50.6081  -18.1235 C   0  0  0  0  0  0  0  0  0  0  0  0
   -0.1073  -51.1452  -16.9982 C   0  0  0  0  0  0  0  0  0  0  0  0
   -0.0025  -50.5523  -15.7232 C   0  0  0  0  0  0  0  0  0  0  0  0
   -0.7607  -51.3136  -14.3304 Cl  0  0  0  0  0  0  0  0  0  0  0  0
    0.7802  -48.8196  -14.3110 O   0  0  0  0  0  0  0  0  0  0  0  0
    2.1733  -46.3649  -13.9134 C   0  0  0  0  0  0  0  0  0  0  0  0
    0.7446  -46.4221  -13.7590 N   0  0  0  0  0  0  0  0  0  0  0  0
   -0.0318  -45.2573  -13.4020 C   0  0  0  0  0  0  0  0  0  0  0  0
    0.0751  -47.6754  -13.9669 C   0  0  0  0  0  0  0  0  0  0  0  0
   -1.1714  -47.7820  -13.8452 O   0  0  0  0  0  0  0  0  0  0  0  0
 36 37  1  0  0  0
 37 38  1  0  0  0
 37 39  1  0  0  0
 39 40  2  0  0  0
 39 35  1  0  0  0
 35 27  1  0  0  0
 27 28  2  0  0  0
 28 29  1  0  0  0
 29 30  1  0  0  0
 29 31  2  0  0  0
 31 23  1  0  0  0
 23 24  1  0  0  0
 24 25  2  0  0  0
 24  1  1  0  0  0
  1  2  2  0  0  0
  2  3  1  0  0  0
  3 13  1  0  0  0
 13 14  1  0  0  0
 14 15  1  0  0  0
 15 16  1  0  0  0
 16 17  1  0  0  0
 17 18  1  0  0  0
 17 19  1  0  0  0
 19 20  2  0  0  0
 19 21  1  0  0  0
 21 22  2  0  0  0
  3  4  1  0  0  0
  4  5  2  0  0  0
  5  6  1  0  0  0
  6  7  2  0  0  0
  7  8  1  0  0  0
  8  9  1  0  0  0
  8 10  2  0  0  0
 31 32  1  0  0  0
 32 33  2  0  0  0
 33 34  1  0  0  0
 33 27  1  0  0  0
 10  1  1  0  0  0
 18 13  1  0  0  0
 10  4  1  0  0  0
 23 26  1  0  0  0
  9 11  1  0  0  0
  9 12  1  0  0  0
M  END
> <minimizedAffinity>
-7.89255

> <CNNscore>
0.5499302745

> <CNNaffinity>
7.3287138939

> <CNN_VS>
4.0302815437

> <CNNaffinity_variance>
0.1931075603

$$$$
[H]C([H])=C([H])C(=O)N1C([H])([H])C([H])([H])C([H])([H])[C@@]([H])(n2nc(C(=O)N([H])c3c([H])c(Cl)c(OC(=O)N(C([H])([H])[H])C([H])([H])[H])c([H])c3Cl)c3c(N([H])[H])nc([H])nc32)C1([H])[H]


 40 43  0  0  0  0  0  0  0  0999 V2000
    0.7511  -52.0842  -21.3528 C   0  0  0  0  0  0  0  0  0  0  0  0
    1.4150  -51.6944  -22.4805 N   0  0  0  0  0  0  0  0  0  0  0  0
    1.0891  -52.3946  -23.5177 N   0  0  0  0  0  0  0  0  0  0  0  0
    0.1672  -53.2965  -23.0846 C   0  0  0  0  0  0  0  0  0  0  0  0
   -0.5153  -54.2572  -23.7187 N   0  0  0  0  0  0  0  0  0  0  0  0
   -1.4013  -55.0374  -23.0811 C   0  0  0  0  0  0  0  0  0  0  0  0
   -1.6187  -54.8603  -21.7729 N   0  0  0  0  0  0  0  0  0  0  0  0
   -0.9642  -53.9016  -21.0462 C   0  0  0  0  0  0  0  0  0  0  0  0
   -1.2802  -53.7698  -19.6679 N   0  0  0  0  0  0  0  0  0  0  0  0
   -0.0582  -53.1100  -21.7088 C   0  0  0  0  0  0  0  0  0  0  0  0
   -1.9926  -53.0315  -19.4198 H   0  0  0  0  0  0  0  0  0  0  0  0
   -0.8511  -54.3786  -18.9133 H   0  0  0  0  0  0  0  0  0  0  0  0
    1.5278  -52.3398  -24.8936 C   0  0  0  0  0  0  0  0  0  0  0  0
    2.9628  -52.8448  -24.9714 C   0  0  0  0  0  0  0  0  0  0  0  0
    3.4368  -52.9057  -26.4112 C   0  0  0  0  0  0  0  0  0  0  0  0
    2.6654  -51.8840  -27.2549 C   0  0  0  0  0  0  0  0  0  0  0  0
    2.4924  -50.7503  -26.4288 N   0  0  0  0  0  0  0  0  0  0  0  0
    1.3912  -50.9198  -25.4256 C   0  0  0  0  0  0  0  0  0  0  0  0
    3.2104  -49.5756  -26.3910 C   0  0  0  0  0  0  0  0  0  0  0  0
    2.7519  -48.6267  -25.5659 O   0  0  0  0  0  0  0  0  0  0  0  0
    4.3755  -49.1811  -27.0822 C   0  0  0  0  0  0  0  0  0  0  0  0
    4.5024  -48.3396  -28.0570 C   0  0  0  0  0  0  0  0  0  0  0  0
    2.2122  -50.9341  -19.7260 N   0  0  0  0  0  0  0  0  0  0  0  0
    0.9256  -51.4371  -20.0494 C   0  0  0  0  0  0  0  0  0  0  0  0
    0.0039  -51.3202  -19.2478 O   0  0  0  0  0  0  0  0  0  0  0  0
    2.9581  -51.0797  -20.4834 H   0  0  0  0  0  0  0  0  0  0  0  0
    3.3756  -48.8308  -16.2430 C   0  0  0  0  0  0  0  0  0  0  0  0
    3.0171  -48.1819  -17.3910 C   0  0  0  0  0  0  0  0  0  0  0  0
    2.6424  -48.8785  -18.5098 C   0  0  0  0  0  0  0  0  0  0  0  0
    2.1860  -48.0315  -19.9712 Cl  0  0  0  0  0  0  0  0  0  0  0  0
    2.6016  -50.2855  -18.5537 C   0  0  0  0  0  0  0  0  0  0  0  0
    2.9667  -50.9019  -17.3875 C   0  0  0  0  0  0  0  0  0  0  0  0
    3.3541  -50.1969  -16.2295 C   0  0  0  0  0  0  0  0  0  0  0  0
    3.8081  -51.0726  -14.7731 Cl  0  0  0  0  0  0  0  0  0  0  0  0
    3.7597  -48.1588  -15.0933 O   0  0  0  0  0  0  0  0  0  0  0  0
    2.1664  -45.8953  -14.4138 C   0  0  0  0  0  0  0  0  0  0  0  0
    3.5411  -45.7256  -14.8009 N   0  0  0  0  0  0  0  0  0  0  0  0
    4.1619  -44.4226  -14.8606 C   0  0  0  0  0  0  0  0  0  0  0  0
    4.3145  -46.8879  -15.1368 C   0  0  0  0  0  0  0  0  0  0  0  0
    5.5198  -46.7974  -15.4816 O   0  0  0  0  0  0  0  0  0  0  0  0
 36 37  1  0  0  0
 37 38  1  0  0  0
 37 39  1  0  0  0
 39 40  2  0  0  0
 39 35  1  0  0  0
 35 27  1  0  0  0
 27 28  2  0  0  0
 28 29  1  0  0  0
 29 30  1  0  0  0
 29 31  2  0  0  0
 31 23  1  0  0  0
 23 24  1  0  0  0
 24 25  2  0  0  0
 24  1  1  0  0  0
  1  2  2  0  0  0
  2  3  1  0  0  0
  3 13  1  0  0  0
 13 14  1  0  0  0
 14 15  1  0  0  0
 15 16  1  0  0  0
 16 17  1  0  0  0
 17 18  1  0  0  0
 17 19  1  0  0  0
 19 20  2  0  0  0
 19 21  1  0  0  0
 21 22  2  0  0  0
  3  4  1  0  0  0
  4  5  2  0  0  0
  5  6  1  0  0  0
  6  7  2  0  0  0
  7  8  1  0  0  0
  8  9  1  0  0  0
  8 10  2  0  0  0
 31 32  1  0  0  0
 32 33  2  0  0  0
 33 34  1  0  0  0
 33 27  1  0  0  0
 10  1  1  0  0  0
 18 13  1  0  0  0
 10  4  1  0  0  0
 23 26  1  0  0  0
  9 11  1  0  0  0
  9 12  1  0  0  0
M  END
> <minimizedAffinity>
-7.59666

> <CNNscore>
0.4917947352

> <CNNaffinity>
7.2894759178

> <CNN_VS>
3.5849258900

> <CNNaffinity_variance>
0.3402264416

$$$$
[H]C([H])=C([H])C(=O)N1C([H])([H])C([H])([H])C([H])([H])[C@@]([H])(n2nc(C(=O)N([H])c3c([H])c(Cl)c(OC(=O)N(C([H])([H])[H])C([H])([H])[H])c([H])c3Cl)c3c(N([H])[H])nc([H])nc32)C1([H])[H]


 40 43  0  0  0  0  0  0  0  0999 V2000
    0.9879  -51.9247  -20.7318 C   0  0  0  0  0  0  0  0  0  0  0  0
    1.7472  -51.5929  -21.8171 N   0  0  0  0  0  0  0  0  0  0  0  0
    1.4399  -52.2796  -22.8690 N   0  0  0  0  0  0  0  0  0  0  0  0
    0.4323  -53.1116  -22.4904 C   0  0  0  0  0  0  0  0  0  0  0  0
   -0.2735  -54.0295  -23.1612 N   0  0  0  0  0  0  0  0  0  0  0  0
   -1.2499  -54.7406  -22.5769 C   0  0  0  0  0  0  0  0  0  0  0  0
   -1.5369  -54.5357  -21.2864 N   0  0  0  0  0  0  0  0  0  0  0  0
   -0.8649  -53.6169  -20.5249 C   0  0  0  0  0  0  0  0  0  0  0  0
   -1.2577  -53.4496  -19.1704 N   0  0  0  0  0  0  0  0  0  0  0  0
    0.1337  -52.8960  -21.1328 C   0  0  0  0  0  0  0  0  0  0  0  0
   -1.9316  -52.6617  -18.9725 H   0  0  0  0  0  0  0  0  0  0  0  0
   -0.9203  -54.0788  -18.3864 H   0  0  0  0  0  0  0  0  0  0  0  0
    1.9675  -52.2691  -24.2144 C   0  0  0  0  0  0  0  0  0  0  0  0
    1.4262  -51.0465  -24.9441 C   0  0  0  0  0  0  0  0  0  0  0  0
    2.0327  -50.9319  -26.3299 C   0  0  0  0  0  0  0  0  0  0  0  0
    2.4489  -52.3201  -26.8303 C   0  0  0  0  0  0  0  0  0  0  0  0
    1.4525  -53.2121  -26.3730 N   0  0  0  0  0  0  0  0  0  0  0  0
    1.6046  -53.5663  -24.9240 C   0  0  0  0  0  0  0  0  0  0  0  0
    0.3706  -53.7368  -27.0445 C   0  0  0  0  0  0  0  0  0  0  0  0
   -0.3552  -54.6451  -26.3816 O   0  0  0  0  0  0  0  0  0  0  0  0
   -0.1262  -53.4816  -28.3402 C   0  0  0  0  0  0  0  0  0  0  0  0
   -0.9420  -52.5583  -28.7359 C   0  0  0  0  0  0  0  0  0  0  0  0
    2.4333  -50.9890  -18.9601 N   0  0  0  0  0  0  0  0  0  0  0  0
    1.1239  -51.2779  -19.4238 C   0  0  0  0  0  0  0  0  0  0  0  0
    0.1522  -50.9841  -18.7345 O   0  0  0  0  0  0  0  0  0  0  0  0
    3.2230  -51.2803  -19.6254 H   0  0  0  0  0  0  0  0  0  0  0  0
    3.5230  -49.0062  -15.3838 C   0  0  0  0  0  0  0  0  0  0  0  0
    3.2647  -48.3214  -16.5378 C   0  0  0  0  0  0  0  0  0  0  0  0
    2.9125  -48.9792  -17.6870 C   0  0  0  0  0  0  0  0  0  0  0  0
    2.5849  -48.0865  -19.1558 Cl  0  0  0  0  0  0  0  0  0  0  0  0
    2.7946  -50.3807  -17.7575 C   0  0  0  0  0  0  0  0  0  0  0  0
    3.0602  -51.0338  -16.5844 C   0  0  0  0  0  0  0  0  0  0  0  0
    3.4234  -50.3689  -15.3953 C   0  0  0  0  0  0  0  0  0  0  0  0
    3.7473  -51.2900  -13.9322 Cl  0  0  0  0  0  0  0  0  0  0  0  0
    3.8816  -48.3740  -14.2037 O   0  0  0  0  0  0  0  0  0  0  0  0
    4.9195  -45.7199  -14.1512 C   0  0  0  0  0  0  0  0  0  0  0  0
    3.6134  -45.9993  -13.6179 N   0  0  0  0  0  0  0  0  0  0  0  0
    2.7863  -44.9640  -13.0428 C   0  0  0  0  0  0  0  0  0  0  0  0
    3.1219  -47.3479  -13.6607 C   0  0  0  0  0  0  0  0  0  0  0  0
    1.9880  -47.6481  -13.2089 O   0  0  0  0  0  0  0  0  0  0  0  0
 36 37  1  0  0  0
 37 38  1  0  0  0
 37 39  1  0  0  0
 39 40  2  0  0  0
 39 35  1  0  0  0
 35 27  1  0  0  0
 27 28  2  0  0  0
 28 29  1  0  0  0
 29 30  1  0  0  0
 29 31  2  0  0  0
 31 23  1  0  0  0
 23 24  1  0  0  0
 24 25  2  0  0  0
 24  1  1  0  0  0
  1  2  2  0  0  0
  2  3  1  0  0  0
  3 13  1  0  0  0
 13 14  1  0  0  0
 14 15  1  0  0  0
 15 16  1  0  0  0
 16 17  1  0  0  0
 17 18  1  0  0  0
 17 19  1  0  0  0
 19 20  2  0  0  0
 19 21  1  0  0  0
 21 22  2  0  0  0
  3  4  1  0  0  0
  4  5  2  0  0  0
  5  6  1  0  0  0
  6  7  2  0  0  0
  7  8  1  0  0  0
  8  9  1  0  0  0
  8 10  2  0  0  0
 31 32  1  0  0  0
 32 33  2  0  0  0
 33 34  1  0  0  0
 33 27  1  0  0  0
 10  1  1  0  0  0
 18 13  1  0  0  0
 10  4  1  0  0  0
 23 26  1  0  0  0
  9 11  1  0  0  0
  9 12  1  0  0  0
M  END
> <minimizedAffinity>
-8.48115

> <CNNscore>
0.4556925595

> <CNNaffinity>
7.2476806641

> <CNN_VS>
3.3027141094

> <CNNaffinity_variance>
0.3338689208

$$$$
[H]C([H])=C([H])C(=O)N1C([H])([H])C([H])([H])C([H])([H])[C@@]([H])(n2nc(C(=O)N([H])c3c([H])c(Cl)c(OC(=O)N(C([H])([H])[H])C([H])([H])[H])c([H])c3Cl)c3c(N([H])[H])nc([H])nc32)C1([H])[H]


 40 43  0  0  0  0  0  0  0  0999 V2000
    0.7021  -51.6782  -21.8090 C   0  0  0  0  0  0  0  0  0  0  0  0
    1.3355  -51.6722  -23.0186 N   0  0  0  0  0  0  0  0  0  0  0  0
    0.9988  -52.6751  -23.7624 N   0  0  0  0  0  0  0  0  0  0  0  0
    0.1010  -53.3940  -23.0357 C   0  0  0  0  0  0  0  0  0  0  0  0
   -0.5794  -54.5145  -23.3045 N   0  0  0  0  0  0  0  0  0  0  0  0
   -1.4390  -55.0513  -22.4251 C   0  0  0  0  0  0  0  0  0  0  0  0
   -1.6313  -54.4588  -21.2410 N   0  0  0  0  0  0  0  0  0  0  0  0
   -0.9769  -53.3102  -20.8834 C   0  0  0  0  0  0  0  0  0  0  0  0
   -1.2656  -52.7385  -19.6158 N   0  0  0  0  0  0  0  0  0  0  0  0
   -0.0981  -52.7706  -21.7905 C   0  0  0  0  0  0  0  0  0  0  0  0
   -1.9843  -51.9655  -19.6039 H   0  0  0  0  0  0  0  0  0  0  0  0
   -0.8108  -53.0642  -18.7150 H   0  0  0  0  0  0  0  0  0  0  0  0
    1.4072  -53.0687  -25.0916 C   0  0  0  0  0  0  0  0  0  0  0  0
    1.9274  -51.8412  -25.8285 C   0  0  0  0  0  0  0  0  0  0  0  0
    2.4665  -52.2197  -27.1952 C   0  0  0  0  0  0  0  0  0  0  0  0
    1.7713  -53.4925  -27.6926 C   0  0  0  0  0  0  0  0  0  0  0  0
    0.4263  -53.3901  -27.2707 N   0  0  0  0  0  0  0  0  0  0  0  0
    0.2411  -53.7221  -25.8204 C   0  0  0  0  0  0  0  0  0  0  0  0
   -0.6859  -52.9892  -27.9773 C   0  0  0  0  0  0  0  0  0  0  0  0
   -1.8597  -53.0890  -27.3421 O   0  0  0  0  0  0  0  0  0  0  0  0
   -0.8152  -52.4760  -29.2852 C   0  0  0  0  0  0  0  0  0  0  0  0
   -0.5365  -53.0399  -30.4160 C   0  0  0  0  0  0  0  0  0  0  0  0
    1.4773  -51.0215  -19.5569 N   0  0  0  0  0  0  0  0  0  0  0  0
    0.8939  -50.6398  -20.7927 C   0  0  0  0  0  0  0  0  0  0  0  0
    0.5704  -49.4713  -20.9813 O   0  0  0  0  0  0  0  0  0  0  0  0
    1.7283  -52.0617  -19.4776 H   0  0  0  0  0  0  0  0  0  0  0  0
    2.4601  -48.5443  -16.2697 C   0  0  0  0  0  0  0  0  0  0  0  0
    3.3965  -48.9290  -17.1878 C   0  0  0  0  0  0  0  0  0  0  0  0
    3.0609  -49.7312  -18.2467 C   0  0  0  0  0  0  0  0  0  0  0  0
    4.2725  -50.2140  -19.4131 Cl  0  0  0  0  0  0  0  0  0  0  0  0
    1.7523  -50.2062  -18.4586 C   0  0  0  0  0  0  0  0  0  0  0  0
    0.8413  -49.8017  -17.5207 C   0  0  0  0  0  0  0  0  0  0  0  0
    1.1735  -48.9765  -16.4267 C   0  0  0  0  0  0  0  0  0  0  0  0
   -0.0635  -48.5054  -15.2683 Cl  0  0  0  0  0  0  0  0  0  0  0  0
    2.7637  -47.7342  -15.1869 O   0  0  0  0  0  0  0  0  0  0  0  0
    3.0151  -49.5869  -13.0356 C   0  0  0  0  0  0  0  0  0  0  0  0
    4.1298  -48.7625  -13.4176 N   0  0  0  0  0  0  0  0  0  0  0  0
    5.4026  -48.8373  -12.7385 C   0  0  0  0  0  0  0  0  0  0  0  0
    3.9679  -47.8399  -14.5060 C   0  0  0  0  0  0  0  0  0  0  0  0
    4.9088  -47.0957  -14.8814 O   0  0  0  0  0  0  0  0  0  0  0  0
 36 37  1  0  0  0
 37 38  1  0  0  0
 37 39  1  0  0  0
 39 40  2  0  0  0
 39 35  1  0  0  0
 35 27  1  0  0  0
 27 28  2  0  0  0
 28 29  1  0  0  0
 29 30  1  0  0  0
 29 31  2  0  0  0
 31 23  1  0  0  0
 23 24  1  0  0  0
 24 25  2  0  0  0
 24  1  1  0  0  0
  1  2  2  0  0  0
  2  3  1  0  0  0
  3 13  1  0  0  0
 13 14  1  0  0  0
 14 15  1  0  0  0
 15 16  1  0  0  0
 16 17  1  0  0  0
 17 18  1  0  0  0
 17 19  1  0  0  0
 19 20  2  0  0  0
 19 21  1  0  0  0
 21 22  2  0  0  0
  3  4  1  0  0  0
  4  5  2  0  0  0
  5  6  1  0  0  0
  6  7  2  0  0  0
  7  8  1  0  0  0
  8  9  1  0  0  0
  8 10  2  0  0  0
 31 32  1  0  0  0
 32 33  2  0  0  0
 33 34  1  0  0  0
 33 27  1  0  0  0
 10  1  1  0  0  0
 18 13  1  0  0  0
 10  4  1  0  0  0
 23 26  1  0  0  0
  9 11  1  0  0  0
  9 12  1  0  0  0
M  END
> <minimizedAffinity>
-7.97446

> <CNNscore>
0.3788307309

> <CNNaffinity>
7.1188917160

> <CNN_VS>
2.6968550682

> <CNNaffinity_variance>
0.3441019356

$$$$
[H]C([H])=C([H])C(=O)N1C([H])([H])C([H])([H])C([H])([H])[C@@]([H])(n2nc(C(=O)N([H])c3c([H])c(Cl)c(OC(=O)N(C([H])([H])[H])C([H])([H])[H])c([H])c3Cl)c3c(N([H])[H])nc([H])nc32)C1([H])[H]


 40 43  0  0  0  0  0  0  0  0999 V2000
    0.4070  -51.4328  -18.1484 C   0  0  0  0  0  0  0  0  0  0  0  0
    1.1955  -50.4549  -17.6133 N   0  0  0  0  0  0  0  0  0  0  0  0
    0.7718  -50.0479  -16.4612 N   0  0  0  0  0  0  0  0  0  0  0  0
   -0.3477  -50.7746  -16.1972 C   0  0  0  0  0  0  0  0  0  0  0  0
   -1.1866  -50.7837  -15.1547 N   0  0  0  0  0  0  0  0  0  0  0  0
   -2.2424  -51.6099  -15.1004 C   0  0  0  0  0  0  0  0  0  0  0  0
   -2.4747  -52.4549  -16.1113 N   0  0  0  0  0  0  0  0  0  0  0  0
   -1.6680  -52.5122  -17.2164 C   0  0  0  0  0  0  0  0  0  0  0  0
   -1.9782  -53.4603  -18.2273 N   0  0  0  0  0  0  0  0  0  0  0  0
   -0.5912  -51.6607  -17.2622 C   0  0  0  0  0  0  0  0  0  0  0  0
   -1.4594  -54.3784  -18.1827 H   0  0  0  0  0  0  0  0  0  0  0  0
   -2.6992  -53.2859  -18.9850 H   0  0  0  0  0  0  0  0  0  0  0  0
    1.2772  -49.0497  -15.5465 C   0  0  0  0  0  0  0  0  0  0  0  0
    0.3880  -47.8155  -15.6269 C   0  0  0  0  0  0  0  0  0  0  0  0
    0.8146  -46.7750  -14.6088 C   0  0  0  0  0  0  0  0  0  0  0  0
    2.3049  -46.9423  -14.2895 C   0  0  0  0  0  0  0  0  0  0  0  0
    2.9264  -47.2910  -15.5100 N   0  0  0  0  0  0  0  0  0  0  0  0
    2.7290  -48.7313  -15.8765 C   0  0  0  0  0  0  0  0  0  0  0  0
    3.6181  -46.4987  -16.3991 C   0  0  0  0  0  0  0  0  0  0  0  0
    4.1898  -47.1274  -17.4331 O   0  0  0  0  0  0  0  0  0  0  0  0
    3.8374  -45.1050  -16.4191 C   0  0  0  0  0  0  0  0  0  0  0  0
    4.6986  -44.4226  -17.1027 C   0  0  0  0  0  0  0  0  0  0  0  0
   -0.0455  -51.6313  -20.5691 N   0  0  0  0  0  0  0  0  0  0  0  0
    0.6824  -52.0769  -19.4357 C   0  0  0  0  0  0  0  0  0  0  0  0
    1.5121  -52.9731  -19.5552 O   0  0  0  0  0  0  0  0  0  0  0  0
   -0.7499  -50.8459  -20.3738 H   0  0  0  0  0  0  0  0  0  0  0  0
    0.1648  -53.1592  -24.5098 C   0  0  0  0  0  0  0  0  0  0  0  0
   -0.5914  -53.7602  -23.5431 C   0  0  0  0  0  0  0  0  0  0  0  0
   -0.6486  -53.2518  -22.2720 C   0  0  0  0  0  0  0  0  0  0  0  0
   -1.6222  -54.0339  -21.0464 Cl  0  0  0  0  0  0  0  0  0  0  0  0
    0.0547  -52.0962  -21.8807 C   0  0  0  0  0  0  0  0  0  0  0  0
    0.8010  -51.5210  -22.8734 C   0  0  0  0  0  0  0  0  0  0  0  0
    0.8684  -52.0340  -24.1850 C   0  0  0  0  0  0  0  0  0  0  0  0
    1.8546  -51.2285  -25.3986 Cl  0  0  0  0  0  0  0  0  0  0  0  0
    0.2461  -53.6455  -25.8052 O   0  0  0  0  0  0  0  0  0  0  0  0
    1.2674  -53.5661  -28.4650 C   0  0  0  0  0  0  0  0  0  0  0  0
   -0.0574  -53.0838  -28.1814 N   0  0  0  0  0  0  0  0  0  0  0  0
   -0.9122  -52.5477  -29.2153 C   0  0  0  0  0  0  0  0  0  0  0  0
   -0.5399  -53.1388  -26.8300 C   0  0  0  0  0  0  0  0  0  0  0  0
   -1.6894  -52.7310  -26.5261 O   0  0  0  0  0  0  0  0  0  0  0  0
 36 37  1  0  0  0
 37 38  1  0  0  0
 37 39  1  0  0  0
 39 40  2  0  0  0
 39 35  1  0  0  0
 35 27  1  0  0  0
 27 28  2  0  0  0
 28 29  1  0  0  0
 29 30  1  0  0  0
 29 31  2  0  0  0
 31 23  1  0  0  0
 23 24  1  0  0  0
 24 25  2  0  0  0
 24  1  1  0  0  0
  1  2  2  0  0  0
  2  3  1  0  0  0
  3 13  1  0  0  0
 13 14  1  0  0  0
 14 15  1  0  0  0
 15 16  1  0  0  0
 16 17  1  0  0  0
 17 18  1  0  0  0
 17 19  1  0  0  0
 19 20  2  0  0  0
 19 21  1  0  0  0
 21 22  2  0  0  0
  3  4  1  0  0  0
  4  5  2  0  0  0
  5  6  1  0  0  0
  6  7  2  0  0  0
  7  8  1  0  0  0
  8  9  1  0  0  0
  8 10  2  0  0  0
 31 32  1  0  0  0
 32 33  2  0  0  0
 33 34  1  0  0  0
 33 27  1  0  0  0
 10  1  1  0  0  0
 18 13  1  0  0  0
 10  4  1  0  0  0
 23 26  1  0  0  0
  9 11  1  0  0  0
  9 12  1  0  0  0
M  END
> <minimizedAffinity>
-7.99890

> <CNNscore>
0.2868340313

> <CNNaffinity>
7.0658264160

> <CNN_VS>
2.0267195702

> <CNNaffinity_variance>
0.2464895546

$$$$
[H]C([H])=C([H])C(=O)N1C([H])([H])C([H])([H])C([H])([H])[C@@]([H])(n2nc(C(=O)N([H])c3c([H])c(Cl)c(OC(=O)N(C([H])([H])[H])C([H])([H])[H])c([H])c3Cl)c3c(N([H])[H])nc([H])nc32)C1([H])[H]


 40 43  0  0  0  0  0  0  0  0999 V2000
    0.6705  -51.2926  -18.4373 C   0  0  0  0  0  0  0  0  0  0  0  0
    1.7154  -50.4157  -18.4992 N   0  0  0  0  0  0  0  0  0  0  0  0
    2.0184  -49.9194  -17.3441 N   0  0  0  0  0  0  0  0  0  0  0  0
    1.1498  -50.4777  -16.4583 C   0  0  0  0  0  0  0  0  0  0  0  0
    1.0048  -50.3399  -15.1351 N   0  0  0  0  0  0  0  0  0  0  0  0
    0.0672  -51.0119  -14.4499 C   0  0  0  0  0  0  0  0  0  0  0  0
   -0.7535  -51.8479  -15.0962 N   0  0  0  0  0  0  0  0  0  0  0  0
   -0.6757  -52.0489  -16.4486 C   0  0  0  0  0  0  0  0  0  0  0  0
   -1.5719  -52.9763  -17.0434 N   0  0  0  0  0  0  0  0  0  0  0  0
    0.2866  -51.3545  -17.1401 C   0  0  0  0  0  0  0  0  0  0  0  0
   -1.2041  -53.9550  -17.1887 H   0  0  0  0  0  0  0  0  0  0  0  0
   -2.5653  -52.7283  -17.3190 H   0  0  0  0  0  0  0  0  0  0  0  0
    3.0316  -48.9720  -16.9384 C   0  0  0  0  0  0  0  0  0  0  0  0
    2.3635  -47.6350  -16.6446 C   0  0  0  0  0  0  0  0  0  0  0  0
    3.3710  -46.6326  -16.1138 C   0  0  0  0  0  0  0  0  0  0  0  0
    4.7723  -46.9844  -16.6271 C   0  0  0  0  0  0  0  0  0  0  0  0
    4.5962  -47.4429  -17.9523 N   0  0  0  0  0  0  0  0  0  0  0  0
    4.0952  -48.8544  -18.0215 C   0  0  0  0  0  0  0  0  0  0  0  0
    4.7674  -46.7711  -19.1424 C   0  0  0  0  0  0  0  0  0  0  0  0
    4.6242  -47.4958  -20.2584 O   0  0  0  0  0  0  0  0  0  0  0  0
    5.0728  -45.4189  -19.4053 C   0  0  0  0  0  0  0  0  0  0  0  0
    6.2180  -44.8174  -19.3695 C   0  0  0  0  0  0  0  0  0  0  0  0
    0.8317  -51.8543  -20.8378 N   0  0  0  0  0  0  0  0  0  0  0  0
    0.1471  -52.0076  -19.6045 C   0  0  0  0  0  0  0  0  0  0  0  0
   -0.8479  -52.7230  -19.5422 O   0  0  0  0  0  0  0  0  0  0  0  0
    1.6896  -51.2108  -20.8016 H   0  0  0  0  0  0  0  0  0  0  0  0
   -0.0642  -53.5032  -24.6308 C   0  0  0  0  0  0  0  0  0  0  0  0
    0.6105  -52.3221  -24.4993 C   0  0  0  0  0  0  0  0  0  0  0  0
    0.8928  -51.8026  -23.2633 C   0  0  0  0  0  0  0  0  0  0  0  0
    1.7580  -50.2891  -23.1133 Cl  0  0  0  0  0  0  0  0  0  0  0  0
    0.5144  -52.4377  -22.0648 C   0  0  0  0  0  0  0  0  0  0  0  0
   -0.1590  -53.6172  -22.2340 C   0  0  0  0  0  0  0  0  0  0  0  0
   -0.4557  -54.1625  -23.4999 C   0  0  0  0  0  0  0  0  0  0  0  0
   -1.3266  -55.6858  -23.6231 Cl  0  0  0  0  0  0  0  0  0  0  0  0
   -0.3667  -54.0579  -25.8643 O   0  0  0  0  0  0  0  0  0  0  0  0
    1.0555  -53.9101  -28.3300 C   0  0  0  0  0  0  0  0  0  0  0  0
   -0.1835  -53.1992  -28.1629 N   0  0  0  0  0  0  0  0  0  0  0  0
   -0.7500  -52.3938  -29.2199 C   0  0  0  0  0  0  0  0  0  0  0  0
   -0.8735  -53.2961  -26.9072 C   0  0  0  0  0  0  0  0  0  0  0  0
   -1.9595  -52.6958  -26.7069 O   0  0  0  0  0  0  0  0  0  0  0  0
 36 37  1  0  0  0
 37 38  1  0  0  0
 37 39  1  0  0  0
 39 40  2  0  0  0
 39 35  1  0  0  0
 35 27  1  0  0  0
 27 28  2  0  0  0
 28 29  1  0  0  0
 29 30  1  0  0  0
 29 31  2  0  0  0
 31 23  1  0  0  0
 23 24  1  0  0  0
 24 25  2  0  0  0
 24  1  1  0  0  0
  1  2  2  0  0  0
  2  3  1  0  0  0
  3 13  1  0  0  0
 13 14  1  0  0  0
 14 15  1  0  0  0
 15 16  1  0  0  0
 16 17  1  0  0  0
 17 18  1  0  0  0
 17 19  1  0  0  0
 19 20  2  0  0  0
 19 21  1  0  0  0
 21 22  2  0  0  0
  3  4  1  0  0  0
  4  5  2  0  0  0
  5  6  1  0  0  0
  6  7  2  0  0  0
  7  8  1  0  0  0
  8  9  1  0  0  0
  8 10  2  0  0  0
 31 32  1  0  0  0
 32 33  2  0  0  0
 33 34  1  0  0  0
 33 27  1  0  0  0
 10  1  1  0  0  0
 18 13  1  0  0  0
 10  4  1  0  0  0
 23 26  1  0  0  0
  9 11  1  0  0  0
  9 12  1  0  0  0
M  END
> <minimizedAffinity>
-8.00032

> <CNNscore>
0.1592014134

> <CNNaffinity>
7.1243324280

> <CNN_VS>
1.1342037916

> <CNNaffinity_variance>
0.6426671743

$$$$
[H]C([H])=C([H])C(=O)N1C([H])([H])C([H])([H])C([H])([H])[C@@]([H])(n2nc(C(=O)N([H])c3c([H])c(Cl)c(OC(=O)N(C([H])([H])[H])C([H])([H])[H])c([H])c3Cl)c3c(N([H])[H])nc([H])nc32)C1([H])[H]


 40 43  0  0  0  0  0  0  0  0999 V2000
    0.7100  -52.0682  -22.8914 C   0  0  0  0  0  0  0  0  0  0  0  0
    0.7660  -51.8614  -21.5429 N   0  0  0  0  0  0  0  0  0  0  0  0
    0.0804  -52.7321  -20.8763 N   0  0  0  0  0  0  0  0  0  0  0  0
   -0.4644  -53.5666  -21.8025 C   0  0  0  0  0  0  0  0  0  0  0  0
   -1.2508  -54.6433  -21.6881 N   0  0  0  0  0  0  0  0  0  0  0  0
   -1.6677  -55.3348  -22.7597 C   0  0  0  0  0  0  0  0  0  0  0  0
   -1.2934  -54.9476  -23.9844 N   0  0  0  0  0  0  0  0  0  0  0  0
   -0.4907  -53.8579  -24.1932 C   0  0  0  0  0  0  0  0  0  0  0  0
   -0.1233  -53.5390  -25.5275 N   0  0  0  0  0  0  0  0  0  0  0  0
   -0.0713  -53.1565  -23.0893 C   0  0  0  0  0  0  0  0  0  0  0  0
    0.8116  -53.9033  -25.8551 H   0  0  0  0  0  0  0  0  0  0  0  0
   -0.7436  -52.9822  -26.1829 H   0  0  0  0  0  0  0  0  0  0  0  0
   -0.1446  -52.9006  -19.4587 C   0  0  0  0  0  0  0  0  0  0  0  0
   -1.6322  -52.7361  -19.1752 C   0  0  0  0  0  0  0  0  0  0  0  0
   -1.9368  -53.0068  -17.7139 C   0  0  0  0  0  0  0  0  0  0  0  0
   -0.6954  -52.7151  -16.8626 C   0  0  0  0  0  0  0  0  0  0  0  0
   -0.0855  -51.5796  -17.4424 N   0  0  0  0  0  0  0  0  0  0  0  0
    0.7005  -51.9039  -18.6773 C   0  0  0  0  0  0  0  0  0  0  0  0
   -0.1594  -50.2568  -17.0661 C   0  0  0  0  0  0  0  0  0  0  0  0
    0.6126  -49.4023  -17.7481 O   0  0  0  0  0  0  0  0  0  0  0  0
   -0.9246  -49.6213  -16.0654 C   0  0  0  0  0  0  0  0  0  0  0  0
   -0.8001  -48.4310  -15.5733 C   0  0  0  0  0  0  0  0  0  0  0  0
    2.5520  -50.5080  -23.4175 N   0  0  0  0  0  0  0  0  0  0  0  0
    1.4179  -51.2333  -23.8658 C   0  0  0  0  0  0  0  0  0  0  0  0
    1.0620  -51.1492  -25.0371 O   0  0  0  0  0  0  0  0  0  0  0  0
    2.7912  -50.6392  -22.3798 H   0  0  0  0  0  0  0  0  0  0  0  0
    5.1370  -48.0541  -25.6987 C   0  0  0  0  0  0  0  0  0  0  0  0
    5.4492  -49.3512  -25.4030 C   0  0  0  0  0  0  0  0  0  0  0  0
    4.6004  -50.1321  -24.6634 C   0  0  0  0  0  0  0  0  0  0  0  0
    5.0158  -51.7912  -24.2943 Cl  0  0  0  0  0  0  0  0  0  0  0  0
    3.3701  -49.6611  -24.1658 C   0  0  0  0  0  0  0  0  0  0  0  0
    3.0900  -48.3589  -24.4807 C   0  0  0  0  0  0  0  0  0  0  0  0
    3.9547  -47.5449  -25.2408 C   0  0  0  0  0  0  0  0  0  0  0  0
    3.5132  -45.8801  -25.5981 Cl  0  0  0  0  0  0  0  0  0  0  0  0
    5.9712  -47.2356  -26.4438 O   0  0  0  0  0  0  0  0  0  0  0  0
    4.6272  -46.6916  -28.8977 C   0  0  0  0  0  0  0  0  0  0  0  0
    5.8806  -47.3969  -28.8973 N   0  0  0  0  0  0  0  0  0  0  0  0
    6.5008  -47.8517  -30.1201 C   0  0  0  0  0  0  0  0  0  0  0  0
    6.5301  -47.6540  -27.6427 C   0  0  0  0  0  0  0  0  0  0  0  0
    7.6265  -48.2659  -27.5843 O   0  0  0  0  0  0  0  0  0  0  0  0
 36 37  1  0  0  0
 37 38  1  0  0  0
 37 39  1  0  0  0
 39 40  2  0  0  0
 39 35  1  0  0  0
 35 27  1  0  0  0
 27 28  2  0  0  0
 28 29  1  0  0  0
 29 30  1  0  0  0
 29 31  2  0  0  0
 31 23  1  0  0  0
 23 24  1  0  0  0
 24 25  2  0  0  0
 24  1  1  0  0  0
  1  2  2  0  0  0
  2  3  1  0  0  0
  3 13  1  0  0  0
 13 14  1  0  0  0
 14 15  1  0  0  0
 15 16  1  0  0  0
 16 17  1  0  0  0
 17 18  1  0  0  0
 17 19  1  0  0  0
 19 20  2  0  0  0
 19 21  1  0  0  0
 21 22  2  0  0  0
  3  4  1  0  0  0
  4  5  2  0  0  0
  5  6  1  0  0  0
  6  7  2  0  0  0
  7  8  1  0  0  0
  8  9  1  0  0  0
  8 10  2  0  0  0
 31 32  1  0  0  0
 32 33  2  0  0  0
 33 34  1  0  0  0
 33 27  1  0  0  0
 10  1  1  0  0  0
 18 13  1  0  0  0
 10  4  1  0  0  0
 23 26  1  0  0  0
  9 11  1  0  0  0
  9 12  1  0  0  0
M  END
> <minimizedAffinity>
-7.12308

> <CNNscore>
0.1533727348

> <CNNaffinity>
6.7911438942

> <CNN_VS>
1.0415762663

> <CNNaffinity_variance>
0.1925053298

$$$$
[H]c1nc(N([H])c2c([H])c([H])c(Oc3c([H])c([H])c([H])c(C(F)(F)F)c3[H])c([H])c2[H])c2sc(C#Cc3c([H])c([H])c(C([H])([H])[H])c([H])c3[H])c([H])c2n1


 37 41  0  0  0  0  0  0  0  0999 V2000
    0.5260  -53.7350  -20.3035 N   0  0  0  0  0  0  0  0  0  0  0  0
    1.3722  -54.3551  -20.0858 H   0  0  0  0  0  0  0  0  0  0  0  0
    1.3958  -51.4402  -24.3398 C   0  0  0  0  0  0  0  0  0  0  0  0
    0.4219  -52.2965  -24.7674 C   0  0  0  0  0  0  0  0  0  0  0  0
   -0.1053  -53.1446  -23.8721 C   0  0  0  0  0  0  0  0  0  0  0  0
   -1.0881  -54.0908  -24.0672 N   0  0  0  0  0  0  0  0  0  0  0  0
   -1.5163  -54.8687  -23.0866 C   0  0  0  0  0  0  0  0  0  0  0  0
   -1.0514  -54.8203  -21.8282 N   0  0  0  0  0  0  0  0  0  0  0  0
   -0.0853  -53.9175  -21.5545 C   0  0  0  0  0  0  0  0  0  0  0  0
    0.3730  -53.0873  -22.5990 C   0  0  0  0  0  0  0  0  0  0  0  0
    1.5463  -51.8497  -22.6858 S   0  0  0  0  0  0  0  0  0  0  0  0
    2.7037  -49.6078  -25.7618 C   0  0  0  0  0  0  0  0  0  0  0  0
    2.1257  -50.4406  -25.1105 C   0  0  0  0  0  0  0  0  0  0  0  0
    5.4343  -45.7445  -29.0160 C   0  0  0  0  0  0  0  0  0  0  0  0
    4.7023  -46.7292  -28.1440 C   0  0  0  0  0  0  0  0  0  0  0  0
    4.0442  -46.3323  -27.0058 C   0  0  0  0  0  0  0  0  0  0  0  0
    3.3906  -47.2633  -26.2352 C   0  0  0  0  0  0  0  0  0  0  0  0
    3.3634  -48.6108  -26.5573 C   0  0  0  0  0  0  0  0  0  0  0  0
    4.0237  -49.0130  -27.7013 C   0  0  0  0  0  0  0  0  0  0  0  0
    4.6838  -48.0733  -28.4795 C   0  0  0  0  0  0  0  0  0  0  0  0
    0.1915  -52.8348  -19.2715 C   0  0  0  0  0  0  0  0  0  0  0  0
   -0.7938  -53.1970  -18.3228 C   0  0  0  0  0  0  0  0  0  0  0  0
   -1.1438  -52.4026  -17.2805 C   0  0  0  0  0  0  0  0  0  0  0  0
   -0.5028  -51.1803  -17.1433 C   0  0  0  0  0  0  0  0  0  0  0  0
    0.4563  -50.7538  -18.0137 C   0  0  0  0  0  0  0  0  0  0  0  0
    0.7678  -51.6245  -19.0658 C   0  0  0  0  0  0  0  0  0  0  0  0
   -0.8803  -50.3770  -16.0507 O   0  0  0  0  0  0  0  0  0  0  0  0
   -2.2126  -50.4648  -15.6037 C   0  0  0  0  0  0  0  0  0  0  0  0
   -2.8672  -49.2990  -15.3140 C   0  0  0  0  0  0  0  0  0  0  0  0
   -4.1897  -49.3839  -14.8673 C   0  0  0  0  0  0  0  0  0  0  0  0
   -4.7978  -50.6125  -14.7283 C   0  0  0  0  0  0  0  0  0  0  0  0
   -4.1463  -51.7877  -15.0170 C   0  0  0  0  0  0  0  0  0  0  0  0
   -2.8270  -51.6901  -15.4629 C   0  0  0  0  0  0  0  0  0  0  0  0
   -4.7943  -53.1017  -14.8568 C   0  0  0  0  0  0  0  0  0  0  0  0
   -4.5928  -53.8218  -16.0138 F   0  0  0  0  0  0  0  0  0  0  0  0
   -4.1006  -53.7593  -13.8591 F   0  0  0  0  0  0  0  0  0  0  0  0
   -6.1408  -53.0099  -14.5939 F   0  0  0  0  0  0  0  0  0  0  0  0
 14 15  1  0  0  0
 15 16  2  0  0  0
 16 17  1  0  0  0
 17 18  2  0  0  0
 18 19  1  0  0  0
 19 20  2  0  0  0
 18 12  1  0  0  0
 12 13  3  0  0  0
 13  3  1  0  0  0
  3  4  2  0  0  0
  4  5  1  0  0  0
  5  6  2  0  0  0
  6  7  1  0  0  0
  7  8  2  0  0  0
  8  9  1  0  0  0
  9  1  1  0  0  0
  1 21  1  0  0  0
 21 22  2  0  0  0
 22 23  1  0  0  0
 23 24  2  0  0  0
 24 27  1  0  0  0
 27 28  1  0  0  0
 28 29  2  0  0  0
 29 30  1  0  0  0
 30 31  2  0  0  0
 31 32  1  0  0  0
 32 33  2  0  0  0
 32 34  1  0  0  0
 34 35  1  0  0  0
 34 36  1  0  0  0
 34 37  1  0  0  0
 24 25  1  0  0  0
 25 26  2  0  0  0
  9 10  2  0  0  0
 10 11  1  0  0  0
 20 15  1  0  0  0
 11  3  1  0  0  0
 10  5  1  0  0  0
 26 21  1  0  0  0
 33 28  1  0  0  0
  1  2  1  0  0  0
M  END
> <minimizedAffinity>
-8.17778

> <CNNscore>
0.6690773368

> <CNNaffinity>
7.2706031799

> <CNN_VS>
4.8645958900

> <CNNaffinity_variance>
0.1865697056

$$$$
[H]c1nc(N([H])c2c([H])c([H])c(Oc3c([H])c([H])c([H])c(C(F)(F)F)c3[H])c([H])c2[H])c2sc(C#Cc3c([H])c([H])c(C([H])([H])[H])c([H])c3[H])c([H])c2n1


 37 41  0  0  0  0  0  0  0  0999 V2000
    0.5786  -53.8531  -20.6718 N   0  0  0  0  0  0  0  0  0  0  0  0
    1.3780  -54.5327  -20.4547 H   0  0  0  0  0  0  0  0  0  0  0  0
    1.4090  -51.5099  -24.6885 C   0  0  0  0  0  0  0  0  0  0  0  0
    0.4123  -52.3427  -25.1099 C   0  0  0  0  0  0  0  0  0  0  0  0
   -0.1120  -53.1958  -24.2176 C   0  0  0  0  0  0  0  0  0  0  0  0
   -1.1146  -54.1220  -24.4078 N   0  0  0  0  0  0  0  0  0  0  0  0
   -1.5368  -54.9079  -23.4311 C   0  0  0  0  0  0  0  0  0  0  0  0
   -1.0467  -54.8873  -22.1815 N   0  0  0  0  0  0  0  0  0  0  0  0
   -0.0601  -54.0054  -21.9131 C   0  0  0  0  0  0  0  0  0  0  0  0
    0.3920  -53.1667  -22.9535 C   0  0  0  0  0  0  0  0  0  0  0  0
    1.5846  -51.9480  -23.0444 S   0  0  0  0  0  0  0  0  0  0  0  0
    2.7383  -49.6645  -26.0733 C   0  0  0  0  0  0  0  0  0  0  0  0
    2.1408  -50.5107  -25.4579 C   0  0  0  0  0  0  0  0  0  0  0  0
    5.4045  -45.4315  -28.8920 C   0  0  0  0  0  0  0  0  0  0  0  0
    4.7330  -46.5646  -28.1631 C   0  0  0  0  0  0  0  0  0  0  0  0
    5.1425  -47.8658  -28.3223 C   0  0  0  0  0  0  0  0  0  0  0  0
    4.5008  -48.8718  -27.6411 C   0  0  0  0  0  0  0  0  0  0  0  0
    3.4385  -48.6318  -26.7842 C   0  0  0  0  0  0  0  0  0  0  0  0
    3.0248  -47.3246  -26.6215 C   0  0  0  0  0  0  0  0  0  0  0  0
    3.6724  -46.3087  -27.3093 C   0  0  0  0  0  0  0  0  0  0  0  0
    0.3260  -52.9164  -19.6491 C   0  0  0  0  0  0  0  0  0  0  0  0
   -0.6652  -53.1945  -18.6783 C   0  0  0  0  0  0  0  0  0  0  0  0
   -0.9404  -52.3620  -17.6434 C   0  0  0  0  0  0  0  0  0  0  0  0
   -0.2135  -51.1855  -17.5368 C   0  0  0  0  0  0  0  0  0  0  0  0
    0.7574  -50.8402  -18.4298 C   0  0  0  0  0  0  0  0  0  0  0  0
    0.9888  -51.7463  -19.4727 C   0  0  0  0  0  0  0  0  0  0  0  0
   -0.5147  -50.3414  -16.4512 O   0  0  0  0  0  0  0  0  0  0  0  0
    0.0870  -50.6304  -15.2114 C   0  0  0  0  0  0  0  0  0  0  0  0
   -0.7058  -50.6111  -14.0968 C   0  0  0  0  0  0  0  0  0  0  0  0
   -0.1097  -50.8951  -12.8639 C   0  0  0  0  0  0  0  0  0  0  0  0
    1.2360  -51.1822  -12.7934 C   0  0  0  0  0  0  0  0  0  0  0  0
    2.0387  -51.2030  -13.9088 C   0  0  0  0  0  0  0  0  0  0  0  0
    1.4322  -50.9188  -15.1337 C   0  0  0  0  0  0  0  0  0  0  0  0
    3.4804  -51.4989  -13.8303 C   0  0  0  0  0  0  0  0  0  0  0  0
    3.6919  -52.3081  -12.7358 F   0  0  0  0  0  0  0  0  0  0  0  0
    3.7837  -52.2580  -14.9443 F   0  0  0  0  0  0  0  0  0  0  0  0
    4.2576  -50.3690  -13.7315 F   0  0  0  0  0  0  0  0  0  0  0  0
 14 15  1  0  0  0
 15 16  2  0  0  0
 16 17  1  0  0  0
 17 18  2  0  0  0
 18 19  1  0  0  0
 19 20  2  0  0  0
 18 12  1  0  0  0
 12 13  3  0  0  0
 13  3  1  0  0  0
  3  4  2  0  0  0
  4  5  1  0  0  0
  5  6  2  0  0  0
  6  7  1  0  0  0
  7  8  2  0  0  0
  8  9  1  0  0  0
  9  1  1  0  0  0
  1 21  1  0  0  0
 21 22  2  0  0  0
 22 23  1  0  0  0
 23 24  2  0  0  0
 24 27  1  0  0  0
 27 28  1  0  0  0
 28 29  2  0  0  0
 29 30  1  0  0  0
 30 31  2  0  0  0
 31 32  1  0  0  0
 32 33  2  0  0  0
 32 34  1  0  0  0
 34 35  1  0  0  0
 34 36  1  0  0  0
 34 37  1  0  0  0
 24 25  1  0  0  0
 25 26  2  0  0  0
  9 10  2  0  0  0
 10 11  1  0  0  0
 20 15  1  0  0  0
 11  3  1  0  0  0
 10  5  1  0  0  0
 26 21  1  0  0  0
 33 28  1  0  0  0
  1  2  1  0  0  0
M  END
> <minimizedAffinity>
-7.45674

> <CNNscore>
0.4837104976

> <CNNaffinity>
7.1956443787

> <CNN_VS>
3.4806087017

> <CNNaffinity_variance>
0.2950689197

$$$$
[H]c1nc(N([H])c2c([H])c([H])c(Oc3c([H])c([H])c([H])c(C(F)(F)F)c3[H])c([H])c2[H])c2sc(C#Cc3c([H])c([H])c(C([H])([H])[H])c([H])c3[H])c([H])c2n1


 37 41  0  0  0  0  0  0  0  0999 V2000
    0.3555  -52.6335  -25.0235 N   0  0  0  0  0  0  0  0  0  0  0  0
   -0.2463  -52.2688  -25.8315 H   0  0  0  0  0  0  0  0  0  0  0  0
   -0.0754  -52.2822  -20.3325 C   0  0  0  0  0  0  0  0  0  0  0  0
   -0.7136  -53.4725  -20.5336 C   0  0  0  0  0  0  0  0  0  0  0  0
   -0.7993  -53.9342  -21.7899 C   0  0  0  0  0  0  0  0  0  0  0  0
   -1.3901  -55.0974  -22.2343 N   0  0  0  0  0  0  0  0  0  0  0  0
   -1.4033  -55.4317  -23.5141 C   0  0  0  0  0  0  0  0  0  0  0  0
   -0.8559  -54.6928  -24.4921 N   0  0  0  0  0  0  0  0  0  0  0  0
   -0.2558  -53.5361  -24.1383 C   0  0  0  0  0  0  0  0  0  0  0  0
   -0.2410  -53.1775  -22.7739 C   0  0  0  0  0  0  0  0  0  0  0  0
    0.3895  -51.8410  -21.9184 S   0  0  0  0  0  0  0  0  0  0  0  0
    0.3330  -51.0042  -18.0325 C   0  0  0  0  0  0  0  0  0  0  0  0
    0.1396  -51.5698  -19.0786 C   0  0  0  0  0  0  0  0  0  0  0  0
    1.2420  -48.2840  -13.0580 C   0  0  0  0  0  0  0  0  0  0  0  0
    1.0244  -49.0257  -14.3496 C   0  0  0  0  0  0  0  0  0  0  0  0
    1.7469  -50.1507  -14.6641 C   0  0  0  0  0  0  0  0  0  0  0  0
    1.5201  -50.7970  -15.8551 C   0  0  0  0  0  0  0  0  0  0  0  0
    0.5789  -50.3593  -16.7732 C   0  0  0  0  0  0  0  0  0  0  0  0
   -0.1495  -49.2289  -16.4598 C   0  0  0  0  0  0  0  0  0  0  0  0
    0.0793  -48.5761  -15.2574 C   0  0  0  0  0  0  0  0  0  0  0  0
    1.6675  -52.1183  -25.0051 C   0  0  0  0  0  0  0  0  0  0  0  0
    1.8686  -50.7201  -25.0885 C   0  0  0  0  0  0  0  0  0  0  0  0
    3.0964  -50.1458  -25.0396 C   0  0  0  0  0  0  0  0  0  0  0  0
    4.2020  -50.9718  -24.9011 C   0  0  0  0  0  0  0  0  0  0  0  0
    4.0971  -52.3287  -24.8156 C   0  0  0  0  0  0  0  0  0  0  0  0
    2.7996  -52.8533  -24.8727 C   0  0  0  0  0  0  0  0  0  0  0  0
    5.4642  -50.3508  -24.8477 O   0  0  0  0  0  0  0  0  0  0  0  0
    6.0567  -50.1814  -23.5817 C   0  0  0  0  0  0  0  0  0  0  0  0
    5.4853  -50.8242  -22.5179 C   0  0  0  0  0  0  0  0  0  0  0  0
    6.0704  -50.6551  -21.2590 C   0  0  0  0  0  0  0  0  0  0  0  0
    7.1871  -49.8611  -21.1137 C   0  0  0  0  0  0  0  0  0  0  0  0
    7.7663  -49.2120  -22.1776 C   0  0  0  0  0  0  0  0  0  0  0  0
    7.1738  -49.3891  -23.4292 C   0  0  0  0  0  0  0  0  0  0  0  0
    8.9538  -48.3537  -22.0187 C   0  0  0  0  0  0  0  0  0  0  0  0
    8.5304  -47.1109  -21.6017 F   0  0  0  0  0  0  0  0  0  0  0  0
    9.6853  -48.8895  -20.9761 F   0  0  0  0  0  0  0  0  0  0  0  0
    9.6890  -48.2319  -23.1742 F   0  0  0  0  0  0  0  0  0  0  0  0
 14 15  1  0  0  0
 15 16  2  0  0  0
 16 17  1  0  0  0
 17 18  2  0  0  0
 18 19  1  0  0  0
 19 20  2  0  0  0
 18 12  1  0  0  0
 12 13  3  0  0  0
 13  3  1  0  0  0
  3  4  2  0  0  0
  4  5  1  0  0  0
  5  6  2  0  0  0
  6  7  1  0  0  0
  7  8  2  0  0  0
  8  9  1  0  0  0
  9  1  1  0  0  0
  1 21  1  0  0  0
 21 22  2  0  0  0
 22 23  1  0  0  0
 23 24  2  0  0  0
 24 27  1  0  0  0
 27 28  1  0  0  0
 28 29  2  0  0  0
 29 30  1  0  0  0
 30 31  2  0  0  0
 31 32  1  0  0  0
 32 33  2  0  0  0
 32 34  1  0  0  0
 34 35  1  0  0  0
 34 36  1  0  0  0
 34 37  1  0  0  0
 24 25  1  0  0  0
 25 26  2  0  0  0
  9 10  2  0  0  0
 10 11  1  0  0  0
 20 15  1  0  0  0
 11  3  1  0  0  0
 10  5  1  0  0  0
 26 21  1  0  0  0
 33 28  1  0  0  0
  1  2  1  0  0  0
M  END
> <minimizedAffinity>
-7.95761

> <CNNscore>
0.4230866432

> <CNNaffinity>
7.1427469254

> <CNN_VS>
3.0220007896

> <CNNaffinity_variance>
0.2101475447

$$$$
[H]c1nc(N([H])c2c([H])c([H])c(Oc3c([H])c([H])c([H])c(C(F)(F)F)c3[H])c([H])c2[H])c2sc(C#Cc3c([H])c([H])c(C([H])([H])[H])c([H])c3[H])c([H])c2n1


 37 41  0  0  0  0  0  0  0  0999 V2000
    0.3255  -52.5324  -25.0139 N   0  0  0  0  0  0  0  0  0  0  0  0
   -0.3014  -52.0902  -25.7618 H   0  0  0  0  0  0  0  0  0  0  0  0
   -0.2894  -52.6320  -20.3314 C   0  0  0  0  0  0  0  0  0  0  0  0
   -0.8271  -53.8434  -20.6597 C   0  0  0  0  0  0  0  0  0  0  0  0
   -0.8346  -54.1968  -21.9535 C   0  0  0  0  0  0  0  0  0  0  0  0
   -1.3189  -55.3561  -22.5198 N   0  0  0  0  0  0  0  0  0  0  0  0
   -1.2630  -55.5755  -23.8232 C   0  0  0  0  0  0  0  0  0  0  0  0
   -0.7413  -54.7143  -24.7110 N   0  0  0  0  0  0  0  0  0  0  0  0
   -0.2442  -53.5526  -24.2351 C   0  0  0  0  0  0  0  0  0  0  0  0
   -0.3031  -53.3165  -22.8454 C   0  0  0  0  0  0  0  0  0  0  0  0
    0.1936  -52.0186  -21.8533 S   0  0  0  0  0  0  0  0  0  0  0  0
   -0.0998  -51.4977  -17.9297 C   0  0  0  0  0  0  0  0  0  0  0  0
   -0.1723  -52.0199  -19.0132 C   0  0  0  0  0  0  0  0  0  0  0  0
    0.2199  -48.7908  -12.8758 C   0  0  0  0  0  0  0  0  0  0  0  0
    0.1234  -49.5309  -14.1830 C   0  0  0  0  0  0  0  0  0  0  0  0
   -0.0913  -50.8867  -14.2284 C   0  0  0  0  0  0  0  0  0  0  0  0
   -0.1698  -51.5254  -15.4423 C   0  0  0  0  0  0  0  0  0  0  0  0
   -0.0396  -50.8539  -16.6475 C   0  0  0  0  0  0  0  0  0  0  0  0
    0.1757  -49.4907  -16.6054 C   0  0  0  0  0  0  0  0  0  0  0  0
    0.2552  -48.8456  -15.3798 C   0  0  0  0  0  0  0  0  0  0  0  0
    1.6234  -51.9856  -24.9542 C   0  0  0  0  0  0  0  0  0  0  0  0
    1.7859  -50.6000  -24.7181 C   0  0  0  0  0  0  0  0  0  0  0  0
    3.0006  -50.0061  -24.6098 C   0  0  0  0  0  0  0  0  0  0  0  0
    4.1319  -50.7984  -24.7370 C   0  0  0  0  0  0  0  0  0  0  0  0
    4.0645  -52.1408  -24.9670 C   0  0  0  0  0  0  0  0  0  0  0  0
    2.7786  -52.6871  -25.0673 C   0  0  0  0  0  0  0  0  0  0  0  0
    5.3800  -50.1589  -24.6154 O   0  0  0  0  0  0  0  0  0  0  0  0
    5.5661  -48.9497  -25.3123 C   0  0  0  0  0  0  0  0  0  0  0  0
    6.1475  -47.9088  -24.6414 C   0  0  0  0  0  0  0  0  0  0  0  0
    6.3307  -46.7059  -25.3308 C   0  0  0  0  0  0  0  0  0  0  0  0
    5.9308  -46.5910  -26.6444 C   0  0  0  0  0  0  0  0  0  0  0  0
    5.3458  -47.6321  -27.3245 C   0  0  0  0  0  0  0  0  0  0  0  0
    5.1690  -48.8279  -26.6262 C   0  0  0  0  0  0  0  0  0  0  0  0
    4.9081  -47.5040  -28.7260 C   0  0  0  0  0  0  0  0  0  0  0  0
    5.9015  -46.8561  -29.4267 F   0  0  0  0  0  0  0  0  0  0  0  0
    4.8432  -48.7877  -29.2330 F   0  0  0  0  0  0  0  0  0  0  0  0
    3.7224  -46.8209  -28.8597 F   0  0  0  0  0  0  0  0  0  0  0  0
 14 15  1  0  0  0
 15 16  2  0  0  0
 16 17  1  0  0  0
 17 18  2  0  0  0
 18 19  1  0  0  0
 19 20  2  0  0  0
 18 12  1  0  0  0
 12 13  3  0  0  0
 13  3  1  0  0  0
  3  4  2  0  0  0
  4  5  1  0  0  0
  5  6  2  0  0  0
  6  7  1  0  0  0
  7  8  2  0  0  0
  8  9  1  0  0  0
  9  1  1  0  0  0
  1 21  1  0  0  0
 21 22  2  0  0  0
 22 23  1  0  0  0
 23 24  2  0  0  0
 24 27  1  0  0  0
 27 28  1  0  0  0
 28 29  2  0  0  0
 29 30  1  0  0  0
 30 31  2  0  0  0
 31 32  1  0  0  0
 32 33  2  0  0  0
 32 34  1  0  0  0
 34 35  1  0  0  0
 34 36  1  0  0  0
 34 37  1  0  0  0
 24 25  1  0  0  0
 25 26  2  0  0  0
  9 10  2  0  0  0
 10 11  1  0  0  0
 20 15  1  0  0  0
 11  3  1  0  0  0
 10  5  1  0  0  0
 26 21  1  0  0  0
 33 28  1  0  0  0
  1  2  1  0  0  0
M  END
> <minimizedAffinity>
-7.29385

> <CNNscore>
0.3511092663

> <CNNaffinity>
7.0298905373

> <CNN_VS>
2.4682598114

> <CNNaffinity_variance>
0.2341338098

$$$$
[H]c1nc(N([H])c2c([H])c([H])c(Oc3c([H])c([H])c([H])c(C(F)(F)F)c3[H])c([H])c2[H])c2sc(C#Cc3c([H])c([H])c(C([H])([H])[H])c([H])c3[H])c([H])c2n1


 37 41  0  0  0  0  0  0  0  0999 V2000
    0.4141  -52.9584  -25.1033 N   0  0  0  0  0  0  0  0  0  0  0  0
   -0.0879  -52.8111  -26.0384 H   0  0  0  0  0  0  0  0  0  0  0  0
    0.0108  -51.9986  -20.4957 C   0  0  0  0  0  0  0  0  0  0  0  0
   -0.7334  -53.1417  -20.5585 C   0  0  0  0  0  0  0  0  0  0  0  0
   -0.8593  -53.7439  -21.7503 C   0  0  0  0  0  0  0  0  0  0  0  0
   -1.5535  -54.8942  -22.0573 N   0  0  0  0  0  0  0  0  0  0  0  0
   -1.5955  -55.3799  -23.2870 C   0  0  0  0  0  0  0  0  0  0  0  0
   -0.9814  -54.8188  -24.3407 N   0  0  0  0  0  0  0  0  0  0  0  0
   -0.2784  -53.6868  -24.1227 C   0  0  0  0  0  0  0  0  0  0  0  0
   -0.2327  -53.1669  -22.8120 C   0  0  0  0  0  0  0  0  0  0  0  0
    0.5164  -51.7985  -22.1175 S   0  0  0  0  0  0  0  0  0  0  0  0
    0.5201  -50.4446  -18.3942 C   0  0  0  0  0  0  0  0  0  0  0  0
    0.2884  -51.1607  -19.3352 C   0  0  0  0  0  0  0  0  0  0  0  0
    1.8162  -46.9461  -14.0294 C   0  0  0  0  0  0  0  0  0  0  0  0
    1.4405  -47.8623  -15.1631 C   0  0  0  0  0  0  0  0  0  0  0  0
    0.1999  -48.4472  -15.2350 C   0  0  0  0  0  0  0  0  0  0  0  0
   -0.1025  -49.2802  -16.2849 C   0  0  0  0  0  0  0  0  0  0  0  0
    0.8025  -49.5648  -17.2950 C   0  0  0  0  0  0  0  0  0  0  0  0
    2.0504  -48.9779  -17.2260 C   0  0  0  0  0  0  0  0  0  0  0  0
    2.3561  -48.1369  -16.1660 C   0  0  0  0  0  0  0  0  0  0  0  0
    1.6949  -52.3730  -25.0395 C   0  0  0  0  0  0  0  0  0  0  0  0
    1.8361  -50.9805  -25.2476 C   0  0  0  0  0  0  0  0  0  0  0  0
    3.0279  -50.3380  -25.1656 C   0  0  0  0  0  0  0  0  0  0  0  0
    4.1566  -51.0853  -24.8633 C   0  0  0  0  0  0  0  0  0  0  0  0
    4.1091  -52.4313  -24.6500 C   0  0  0  0  0  0  0  0  0  0  0  0
    2.8462  -53.0290  -24.7503 C   0  0  0  0  0  0  0  0  0  0  0  0
    5.3801  -50.3942  -24.7790 O   0  0  0  0  0  0  0  0  0  0  0  0
    5.9244  -50.1818  -23.4979 C   0  0  0  0  0  0  0  0  0  0  0  0
    7.2843  -50.0796  -23.3907 C   0  0  0  0  0  0  0  0  0  0  0  0
    7.8273  -49.8715  -22.1188 C   0  0  0  0  0  0  0  0  0  0  0  0
    7.0025  -49.7760  -21.0192 C   0  0  0  0  0  0  0  0  0  0  0  0
    5.6357  -49.8781  -21.1192 C   0  0  0  0  0  0  0  0  0  0  0  0
    5.1054  -50.0849  -22.3940 C   0  0  0  0  0  0  0  0  0  0  0  0
    4.7556  -49.7873  -19.9405 C   0  0  0  0  0  0  0  0  0  0  0  0
    3.7193  -48.9324  -20.2455 F   0  0  0  0  0  0  0  0  0  0  0  0
    4.1957  -51.0396  -19.7748 F   0  0  0  0  0  0  0  0  0  0  0  0
    5.4080  -49.3452  -18.8139 F   0  0  0  0  0  0  0  0  0  0  0  0
 14 15  1  0  0  0
 15 16  2  0  0  0
 16 17  1  0  0  0
 17 18  2  0  0  0
 18 19  1  0  0  0
 19 20  2  0  0  0
 18 12  1  0  0  0
 12 13  3  0  0  0
 13  3  1  0  0  0
  3  4  2  0  0  0
  4  5  1  0  0  0
  5  6  2  0  0  0
  6  7  1  0  0  0
  7  8  2  0  0  0
  8  9  1  0  0  0
  9  1  1  0  0  0
  1 21  1  0  0  0
 21 22  2  0  0  0
 22 23  1  0  0  0
 23 24  2  0  0  0
 24 27  1  0  0  0
 27 28  1  0  0  0
 28 29  2  0  0  0
 29 30  1  0  0  0
 30 31  2  0  0  0
 31 32  1  0  0  0
 32 33  2  0  0  0
 32 34  1  0  0  0
 34 35  1  0  0  0
 34 36  1  0  0  0
 34 37  1  0  0  0
 24 25  1  0  0  0
 25 26  2  0  0  0
  9 10  2  0  0  0
 10 11  1  0  0  0
 20 15  1  0  0  0
 11  3  1  0  0  0
 10  5  1  0  0  0
 26 21  1  0  0  0
 33 28  1  0  0  0
  1  2  1  0  0  0
M  END
> <minimizedAffinity>
-8.21668

> <CNNscore>
0.3181181550

> <CNNaffinity>
7.1308708191

> <CNN_VS>
2.2684595585

> <CNNaffinity_variance>
0.3465012014

$$$$
[H]c1nc(N([H])c2c([H])c([H])c(Oc3c([H])c([H])c([H])c(C(F)(F)F)c3[H])c([H])c2[H])c2sc(C#Cc3c([H])c([H])c(C([H])([H])[H])c([H])c3[H])c([H])c2n1


 37 41  0  0  0  0  0  0  0  0999 V2000
    0.5000  -52.3608  -25.1031 N   0  0  0  0  0  0  0  0  0  0  0  0
   -0.1038  -51.9114  -25.8656 H   0  0  0  0  0  0  0  0  0  0  0  0
   -0.0863  -52.2957  -20.4163 C   0  0  0  0  0  0  0  0  0  0  0  0
   -0.6936  -53.4835  -20.7075 C   0  0  0  0  0  0  0  0  0  0  0  0
   -0.7301  -53.8716  -21.9908 C   0  0  0  0  0  0  0  0  0  0  0  0
   -1.2829  -55.0170  -22.5217 N   0  0  0  0  0  0  0  0  0  0  0  0
   -1.2487  -55.2752  -23.8187 C   0  0  0  0  0  0  0  0  0  0  0  0
   -0.6857  -54.4698  -24.7333 N   0  0  0  0  0  0  0  0  0  0  0  0
   -0.1206  -53.3253  -24.2928 C   0  0  0  0  0  0  0  0  0  0  0  0
   -0.1563  -53.0478  -22.9101 C   0  0  0  0  0  0  0  0  0  0  0  0
    0.4196  -51.7529  -21.9575 S   0  0  0  0  0  0  0  0  0  0  0  0
    0.1961  -51.1498  -18.0294 C   0  0  0  0  0  0  0  0  0  0  0  0
    0.0744  -51.6549  -19.1165 C   0  0  0  0  0  0  0  0  0  0  0  0
    0.6637  -48.7012  -12.8566 C   0  0  0  0  0  0  0  0  0  0  0  0
    0.5560  -49.3745  -14.1986 C   0  0  0  0  0  0  0  0  0  0  0  0
    1.1740  -50.5742  -14.4537 C   0  0  0  0  0  0  0  0  0  0  0  0
    1.0538  -51.1543  -15.6933 C   0  0  0  0  0  0  0  0  0  0  0  0
    0.3245  -50.5752  -16.7195 C   0  0  0  0  0  0  0  0  0  0  0  0
   -0.2986  -49.3694  -16.4662 C   0  0  0  0  0  0  0  0  0  0  0  0
   -0.1772  -48.7833  -15.2147 C   0  0  0  0  0  0  0  0  0  0  0  0
    1.8241  -51.8792  -25.0593 C   0  0  0  0  0  0  0  0  0  0  0  0
    2.0826  -50.5219  -25.3641 C   0  0  0  0  0  0  0  0  0  0  0  0
    3.3226  -49.9749  -25.3079 C   0  0  0  0  0  0  0  0  0  0  0  0
    4.3820  -50.7881  -24.9336 C   0  0  0  0  0  0  0  0  0  0  0  0
    4.2206  -52.1066  -24.6254 C   0  0  0  0  0  0  0  0  0  0  0  0
    2.9137  -52.6046  -24.7043 C   0  0  0  0  0  0  0  0  0  0  0  0
    5.6575  -50.1952  -24.8779 O   0  0  0  0  0  0  0  0  0  0  0  0
    6.1557  -49.8329  -23.6118 C   0  0  0  0  0  0  0  0  0  0  0  0
    7.4952  -49.5779  -23.5015 C   0  0  0  0  0  0  0  0  0  0  0  0
    7.9927  -49.2205  -22.2443 C   0  0  0  0  0  0  0  0  0  0  0  0
    7.1450  -49.1341  -21.1614 C   0  0  0  0  0  0  0  0  0  0  0  0
    5.7986  -49.3893  -21.2646 C   0  0  0  0  0  0  0  0  0  0  0  0
    5.3136  -49.7441  -22.5247 C   0  0  0  0  0  0  0  0  0  0  0  0
    4.8951  -49.3077  -20.1030 C   0  0  0  0  0  0  0  0  0  0  0  0
    4.0476  -48.2387  -20.2946 F   0  0  0  0  0  0  0  0  0  0  0  0
    4.1092  -50.4435  -20.1400 F   0  0  0  0  0  0  0  0  0  0  0  0
    5.5633  -49.1643  -18.9099 F   0  0  0  0  0  0  0  0  0  0  0  0
 14 15  1  0  0  0
 15 16  2  0  0  0
 16 17  1  0  0  0
 17 18  2  0  0  0
 18 19  1  0  0  0
 19 20  2  0  0  0
 18 12  1  0  0  0
 12 13  3  0  0  0
 13  3  1  0  0  0
  3  4  2  0  0  0
  4  5  1  0  0  0
  5  6  2  0  0  0
  6  7  1  0  0  0
  7  8  2  0  0  0
  8  9  1  0  0  0
  9  1  1  0  0  0
  1 21  1  0  0  0
 21 22  2  0  0  0
 22 23  1  0  0  0
 23 24  2  0  0  0
 24 27  1  0  0  0
 27 28  1  0  0  0
 28 29  2  0  0  0
 29 30  1  0  0  0
 30 31  2  0  0  0
 31 32  1  0  0  0
 32 33  2  0  0  0
 32 34  1  0  0  0
 34 35  1  0  0  0
 34 36  1  0  0  0
 34 37  1  0  0  0
 24 25  1  0  0  0
 25 26  2  0  0  0
  9 10  2  0  0  0
 10 11  1  0  0  0
 20 15  1  0  0  0
 11  3  1  0  0  0
 10  5  1  0  0  0
 26 21  1  0  0  0
 33 28  1  0  0  0
  1  2  1  0  0  0
M  END
> <minimizedAffinity>
-7.57903

> <CNNscore>
0.3112382889

> <CNNaffinity>
7.1998839378

> <CNN_VS>
2.2408795357

> <CNNaffinity_variance>
0.3679487407

$$$$
[H]c1nc(N([H])c2c([H])c([H])c(Oc3c([H])c([H])c([H])c(C(F)(F)F)c3[H])c([H])c2[H])c2sc(C#Cc3c([H])c([H])c(C([H])([H])[H])c([H])c3[H])c([H])c2n1


 37 41  0  0  0  0  0  0  0  0999 V2000
   -0.4996  -52.9213  -20.3687 N   0  0  0  0  0  0  0  0  0  0  0  0
   -1.2444  -53.1587  -19.6360 H   0  0  0  0  0  0  0  0  0  0  0  0
    1.2049  -51.4283  -24.5136 C   0  0  0  0  0  0  0  0  0  0  0  0
    0.5748  -52.5689  -24.9215 C   0  0  0  0  0  0  0  0  0  0  0  0
   -0.0585  -53.3020  -23.9940 C   0  0  0  0  0  0  0  0  0  0  0  0
   -0.7554  -54.4787  -24.1643 N   0  0  0  0  0  0  0  0  0  0  0  0
   -1.3350  -55.1025  -23.1518 C   0  0  0  0  0  0  0  0  0  0  0  0
   -1.3074  -54.6667  -21.8824 N   0  0  0  0  0  0  0  0  0  0  0  0
   -0.6437  -53.5179  -21.6318 C   0  0  0  0  0  0  0  0  0  0  0  0
   -0.0245  -52.8513  -22.7100 C   0  0  0  0  0  0  0  0  0  0  0  0
    0.8906  -51.4148  -22.8322 S   0  0  0  0  0  0  0  0  0  0  0  0
    2.5724  -49.6653  -25.9669 C   0  0  0  0  0  0  0  0  0  0  0  0
    1.9624  -50.4751  -25.3158 C   0  0  0  0  0  0  0  0  0  0  0  0
    5.5115  -45.8228  -29.0601 C   0  0  0  0  0  0  0  0  0  0  0  0
    4.7183  -46.8027  -28.2376 C   0  0  0  0  0  0  0  0  0  0  0  0
    3.7915  -46.3835  -27.3148 C   0  0  0  0  0  0  0  0  0  0  0  0
    3.0905  -47.3102  -26.5817 C   0  0  0  0  0  0  0  0  0  0  0  0
    3.2778  -48.6750  -26.7312 C   0  0  0  0  0  0  0  0  0  0  0  0
    4.2084  -49.0998  -27.6585 C   0  0  0  0  0  0  0  0  0  0  0  0
    4.9165  -48.1643  -28.3988 C   0  0  0  0  0  0  0  0  0  0  0  0
    0.5025  -52.0437  -19.9072 C   0  0  0  0  0  0  0  0  0  0  0  0
    1.8528  -52.4667  -19.9055 C   0  0  0  0  0  0  0  0  0  0  0  0
    2.8768  -51.6688  -19.5126 C   0  0  0  0  0  0  0  0  0  0  0  0
    2.5809  -50.3797  -19.0946 C   0  0  0  0  0  0  0  0  0  0  0  0
    1.3073  -49.8934  -19.0637 C   0  0  0  0  0  0  0  0  0  0  0  0
    0.2998  -50.7716  -19.4831 C   0  0  0  0  0  0  0  0  0  0  0  0
    3.6617  -49.5701  -18.6970 O   0  0  0  0  0  0  0  0  0  0  0  0
    4.4637  -49.0071  -19.7081 C   0  0  0  0  0  0  0  0  0  0  0  0
    3.9443  -47.9683  -20.4310 C   0  0  0  0  0  0  0  0  0  0  0  0
    4.7382  -47.4094  -21.4377 C   0  0  0  0  0  0  0  0  0  0  0  0
    6.0014  -47.9034  -21.6800 C   0  0  0  0  0  0  0  0  0  0  0  0
    6.5295  -48.9468  -20.9581 C   0  0  0  0  0  0  0  0  0  0  0  0
    5.7281  -49.4959  -19.9555 C   0  0  0  0  0  0  0  0  0  0  0  0
    7.8764  -49.4817  -21.2263 C   0  0  0  0  0  0  0  0  0  0  0  0
    7.7527  -50.5244  -22.1179 F   0  0  0  0  0  0  0  0  0  0  0  0
    8.5687  -48.4828  -21.8837 F   0  0  0  0  0  0  0  0  0  0  0  0
    8.5203  -49.9136  -20.0908 F   0  0  0  0  0  0  0  0  0  0  0  0
 14 15  1  0  0  0
 15 16  2  0  0  0
 16 17  1  0  0  0
 17 18  2  0  0  0
 18 19  1  0  0  0
 19 20  2  0  0  0
 18 12  1  0  0  0
 12 13  3  0  0  0
 13  3  1  0  0  0
  3  4  2  0  0  0
  4  5  1  0  0  0
  5  6  2  0  0  0
  6  7  1  0  0  0
  7  8  2  0  0  0
  8  9  1  0  0  0
  9  1  1  0  0  0
  1 21  1  0  0  0
 21 22  2  0  0  0
 22 23  1  0  0  0
 23 24  2  0  0  0
 24 27  1  0  0  0
 27 28  1  0  0  0
 28 29  2  0  0  0
 29 30  1  0  0  0
 30 31  2  0  0  0
 31 32  1  0  0  0
 32 33  2  0  0  0
 32 34  1  0  0  0
 34 35  1  0  0  0
 34 36  1  0  0  0
 34 37  1  0  0  0
 24 25  1  0  0  0
 25 26  2  0  0  0
  9 10  2  0  0  0
 10 11  1  0  0  0
 20 15  1  0  0  0
 11  3  1  0  0  0
 10  5  1  0  0  0
 26 21  1  0  0  0
 33 28  1  0  0  0
  1  2  1  0  0  0
M  END
> <minimizedAffinity>
-7.29013

> <CNNscore>
0.2959624529

> <CNNaffinity>
7.0656867027

> <CNN_VS>
2.0911779404

> <CNNaffinity_variance>
0.4787051678

$$$$
[H]c1nc(N([H])c2c([H])c([H])c(Oc3c([H])c([H])c([H])c(C(F)(F)F)c3[H])c([H])c2[H])c2sc(C#Cc3c([H])c([H])c(C([H])([H])[H])c([H])c3[H])c([H])c2n1


 37 41  0  0  0  0  0  0  0  0999 V2000
   -1.2626  -54.7131  -23.3829 N   0  0  0  0  0  0  0  0  0  0  0  0
   -2.1507  -55.3066  -23.4669 H   0  0  0  0  0  0  0  0  0  0  0  0
    1.7204  -51.1953  -24.4031 C   0  0  0  0  0  0  0  0  0  0  0  0
    1.8228  -51.9244  -25.5530 C   0  0  0  0  0  0  0  0  0  0  0  0
    1.0925  -53.0449  -25.6528 C   0  0  0  0  0  0  0  0  0  0  0  0
    1.0315  -53.9344  -26.7037 N   0  0  0  0  0  0  0  0  0  0  0  0
    0.2623  -55.0100  -26.6673 C   0  0  0  0  0  0  0  0  0  0  0  0
   -0.5217  -55.3416  -25.6293 N   0  0  0  0  0  0  0  0  0  0  0  0
   -0.5190  -54.5194  -24.5582 C   0  0  0  0  0  0  0  0  0  0  0  0
    0.3009  -53.3719  -24.5948 C   0  0  0  0  0  0  0  0  0  0  0  0
    0.5971  -52.1052  -23.4887 S   0  0  0  0  0  0  0  0  0  0  0  0
    2.9618  -48.9243  -23.7773 C   0  0  0  0  0  0  0  0  0  0  0  0
    2.4090  -49.9597  -24.0492 C   0  0  0  0  0  0  0  0  0  0  0  0
    5.3757  -43.8559  -22.5705 C   0  0  0  0  0  0  0  0  0  0  0  0
    4.7767  -45.1981  -22.8954 C   0  0  0  0  0  0  0  0  0  0  0  0
    5.5031  -46.1758  -23.5301 C   0  0  0  0  0  0  0  0  0  0  0  0
    4.9182  -47.3867  -23.8118 C   0  0  0  0  0  0  0  0  0  0  0  0
    3.6040  -47.6747  -23.4799 C   0  0  0  0  0  0  0  0  0  0  0  0
    2.8711  -46.6941  -22.8412 C   0  0  0  0  0  0  0  0  0  0  0  0
    3.4614  -45.4714  -22.5569 C   0  0  0  0  0  0  0  0  0  0  0  0
   -1.0079  -54.2401  -22.0795 C   0  0  0  0  0  0  0  0  0  0  0  0
   -1.9761  -53.4415  -21.4261 C   0  0  0  0  0  0  0  0  0  0  0  0
   -1.8214  -52.9803  -20.1600 C   0  0  0  0  0  0  0  0  0  0  0  0
   -0.6587  -53.3099  -19.4792 C   0  0  0  0  0  0  0  0  0  0  0  0
    0.3251  -54.0729  -20.0355 C   0  0  0  0  0  0  0  0  0  0  0  0
    0.0987  -54.5150  -21.3452 C   0  0  0  0  0  0  0  0  0  0  0  0
   -0.5248  -52.8234  -18.1651 O   0  0  0  0  0  0  0  0  0  0  0  0
    0.0132  -51.5331  -17.9970 C   0  0  0  0  0  0  0  0  0  0  0  0
   -0.1015  -50.9487  -16.7654 C   0  0  0  0  0  0  0  0  0  0  0  0
    0.4297  -49.6660  -16.5970 C   0  0  0  0  0  0  0  0  0  0  0  0
    1.0450  -49.0258  -17.6505 C   0  0  0  0  0  0  0  0  0  0  0  0
    1.1636  -49.6064  -18.8905 C   0  0  0  0  0  0  0  0  0  0  0  0
    0.6304  -50.8872  -19.0462 C   0  0  0  0  0  0  0  0  0  0  0  0
    1.8119  -48.9157  -20.0196 C   0  0  0  0  0  0  0  0  0  0  0  0
    2.5444  -49.8446  -20.7255 F   0  0  0  0  0  0  0  0  0  0  0  0
    0.7951  -48.4987  -20.8571 F   0  0  0  0  0  0  0  0  0  0  0  0
    2.6282  -47.8831  -19.6223 F   0  0  0  0  0  0  0  0  0  0  0  0
 14 15  1  0  0  0
 15 16  2  0  0  0
 16 17  1  0  0  0
 17 18  2  0  0  0
 18 19  1  0  0  0
 19 20  2  0  0  0
 18 12  1  0  0  0
 12 13  3  0  0  0
 13  3  1  0  0  0
  3  4  2  0  0  0
  4  5  1  0  0  0
  5  6  2  0  0  0
  6  7  1  0  0  0
  7  8  2  0  0  0
  8  9  1  0  0  0
  9  1  1  0  0  0
  1 21  1  0  0  0
 21 22  2  0  0  0
 22 23  1  0  0  0
 23 24  2  0  0  0
 24 27  1  0  0  0
 27 28  1  0  0  0
 28 29  2  0  0  0
 29 30  1  0  0  0
 30 31  2  0  0  0
 31 32  1  0  0  0
 32 33  2  0  0  0
 32 34  1  0  0  0
 34 35  1  0  0  0
 34 36  1  0  0  0
 34 37  1  0  0  0
 24 25  1  0  0  0
 25 26  2  0  0  0
  9 10  2  0  0  0
 10 11  1  0  0  0
 20 15  1  0  0  0
 11  3  1  0  0  0
 10  5  1  0  0  0
 26 21  1  0  0  0
 33 28  1  0  0  0
  1  2  1  0  0  0
M  END
> <minimizedAffinity>
-7.95775

> <CNNscore>
0.2958737612

> <CNNaffinity>
7.2256326675

> <CNN_VS>
2.1378750801

> <CNNaffinity_variance>
0.3014798760

$$$$
[H]c1nc(N([H])c2c([H])c([H])c(Oc3c([H])c([H])c([H])c(C(F)(F)F)c3[H])c([H])c2[H])c2sc(C#Cc3c([H])c([H])c(C([H])([H])[H])c([H])c3[H])c([H])c2n1


 37 41  0  0  0  0  0  0  0  0999 V2000
   -0.1772  -53.3524  -19.1494 N   0  0  0  0  0  0  0  0  0  0  0  0
    0.3162  -54.2794  -18.9367 H   0  0  0  0  0  0  0  0  0  0  0  0
    0.9164  -49.5667  -16.5444 C   0  0  0  0  0  0  0  0  0  0  0  0
   -0.2880  -49.8888  -15.9876 C   0  0  0  0  0  0  0  0  0  0  0  0
   -0.9396  -50.9550  -16.4749 C   0  0  0  0  0  0  0  0  0  0  0  0
   -2.1563  -51.4672  -16.0791 N   0  0  0  0  0  0  0  0  0  0  0  0
   -2.6875  -52.5339  -16.6534 C   0  0  0  0  0  0  0  0  0  0  0  0
   -2.1126  -53.2146  -17.6575 N   0  0  0  0  0  0  0  0  0  0  0  0
   -0.9161  -52.7759  -18.1036 C   0  0  0  0  0  0  0  0  0  0  0  0
   -0.3479  -51.6383  -17.4927 C   0  0  0  0  0  0  0  0  0  0  0  0
    1.1034  -50.7737  -17.7419 S   0  0  0  0  0  0  0  0  0  0  0  0
    2.5521  -47.5512  -15.9504 C   0  0  0  0  0  0  0  0  0  0  0  0
    1.8056  -48.4623  -16.2042 C   0  0  0  0  0  0  0  0  0  0  0  0
    6.1782  -43.2775  -14.7018 C   0  0  0  0  0  0  0  0  0  0  0  0
    5.2231  -44.3834  -15.0634 C   0  0  0  0  0  0  0  0  0  0  0  0
    4.4590  -44.3304  -16.2034 C   0  0  0  0  0  0  0  0  0  0  0  0
    3.5966  -45.3593  -16.4958 C   0  0  0  0  0  0  0  0  0  0  0  0
    3.4575  -46.4700  -15.6790 C   0  0  0  0  0  0  0  0  0  0  0  0
    4.2247  -46.5267  -14.5324 C   0  0  0  0  0  0  0  0  0  0  0  0
    5.0954  -45.4880  -14.2369 C   0  0  0  0  0  0  0  0  0  0  0  0
    0.0117  -52.8892  -20.4673 C   0  0  0  0  0  0  0  0  0  0  0  0
   -1.0755  -52.9006  -21.3728 C   0  0  0  0  0  0  0  0  0  0  0  0
   -0.9834  -52.4374  -22.6443 C   0  0  0  0  0  0  0  0  0  0  0  0
    0.2350  -51.9301  -23.0710 C   0  0  0  0  0  0  0  0  0  0  0  0
    1.3329  -51.8838  -22.2636 C   0  0  0  0  0  0  0  0  0  0  0  0
    1.1659  -52.3785  -20.9638 C   0  0  0  0  0  0  0  0  0  0  0  0
    0.3030  -51.4509  -24.3929 O   0  0  0  0  0  0  0  0  0  0  0  0
    0.1688  -52.3874  -25.4358 C   0  0  0  0  0  0  0  0  0  0  0  0
    0.8420  -53.5727  -25.3202 C   0  0  0  0  0  0  0  0  0  0  0  0
    0.7125  -54.5032  -26.3562 C   0  0  0  0  0  0  0  0  0  0  0  0
   -0.0724  -54.2171  -27.4520 C   0  0  0  0  0  0  0  0  0  0  0  0
   -0.7511  -53.0284  -27.5750 C   0  0  0  0  0  0  0  0  0  0  0  0
   -0.6148  -52.1080  -26.5342 C   0  0  0  0  0  0  0  0  0  0  0  0
   -1.5810  -52.7191  -28.7530 C   0  0  0  0  0  0  0  0  0  0  0  0
   -2.7782  -52.2023  -28.3090 F   0  0  0  0  0  0  0  0  0  0  0  0
   -0.9377  -51.6979  -29.4257 F   0  0  0  0  0  0  0  0  0  0  0  0
   -1.8138  -53.8147  -29.5506 F   0  0  0  0  0  0  0  0  0  0  0  0
 14 15  1  0  0  0
 15 16  2  0  0  0
 16 17  1  0  0  0
 17 18  2  0  0  0
 18 19  1  0  0  0
 19 20  2  0  0  0
 18 12  1  0  0  0
 12 13  3  0  0  0
 13  3  1  0  0  0
  3  4  2  0  0  0
  4  5  1  0  0  0
  5  6  2  0  0  0
  6  7  1  0  0  0
  7  8  2  0  0  0
  8  9  1  0  0  0
  9  1  1  0  0  0
  1 21  1  0  0  0
 21 22  2  0  0  0
 22 23  1  0  0  0
 23 24  2  0  0  0
 24 27  1  0  0  0
 27 28  1  0  0  0
 28 29  2  0  0  0
 29 30  1  0  0  0
 30 31  2  0  0  0
 31 32  1  0  0  0
 32 33  2  0  0  0
 32 34  1  0  0  0
 34 35  1  0  0  0
 34 36  1  0  0  0
 34 37  1  0  0  0
 24 25  1  0  0  0
 25 26  2  0  0  0
  9 10  2  0  0  0
 10 11  1  0  0  0
 20 15  1  0  0  0
 11  3  1  0  0  0
 10  5  1  0  0  0
 26 21  1  0  0  0
 33 28  1  0  0  0
  1  2  1  0  0  0
M  END
> <minimizedAffinity>
-7.67025

> <CNNscore>
0.2930190861

> <CNNaffinity>
6.7995939255

> <CNN_VS>
1.9924107790

> <CNNaffinity_variance>
0.2532711029

$$$$
[H]ON([H])C(=O)C([H])([H])C([H])([H])C([H])([H])C([H])([H])C([H])([H])C([H])([H])C([H])([H])N([H])C(=O)N1C([H])([H])C([H])([H])C([H])([H])C([H])(c2nc([H])c(-c3c([H])c([H])c4nc([H])nc(N([H])c5c([H])c([H])c(F)c([H])c5[H])c4c3[H])n2[H])C1([H])[H]


 48 52  0  0  0  0  0  0  0  0999 V2000
    0.6658  -50.6706  -20.1897 C   0  0  0  0  0  0  0  0  0  0  0  0
    0.9757  -49.4935  -20.8388 C   0  0  0  0  0  0  0  0  0  0  0  0
    1.5211  -48.6594  -19.9358 N   0  0  0  0  0  0  0  0  0  0  0  0
    1.5727  -49.2567  -18.7319 C   0  0  0  0  0  0  0  0  0  0  0  0
    1.0476  -50.4803  -18.9055 N   0  0  0  0  0  0  0  0  0  0  0  0
    0.9174  -51.2356  -18.1973 H   0  0  0  0  0  0  0  0  0  0  0  0
   -0.2310  -53.4977  -23.9981 C   0  0  0  0  0  0  0  0  0  0  0  0
   -0.8215  -54.6187  -24.4431 N   0  0  0  0  0  0  0  0  0  0  0  0
   -1.5128  -55.4649  -23.6672 C   0  0  0  0  0  0  0  0  0  0  0  0
   -1.6565  -55.2277  -22.3578 N   0  0  0  0  0  0  0  0  0  0  0  0
   -1.1033  -54.1392  -21.8335 C   0  0  0  0  0  0  0  0  0  0  0  0
   -1.2444  -53.8829  -20.4773 C   0  0  0  0  0  0  0  0  0  0  0  0
   -0.6603  -52.7472  -19.9592 C   0  0  0  0  0  0  0  0  0  0  0  0
    0.0512  -51.8738  -20.7507 C   0  0  0  0  0  0  0  0  0  0  0  0
    0.1954  -52.1251  -22.1037 C   0  0  0  0  0  0  0  0  0  0  0  0
   -0.3793  -53.2525  -22.6433 C   0  0  0  0  0  0  0  0  0  0  0  0
    0.4493  -52.6282  -24.8603 N   0  0  0  0  0  0  0  0  0  0  0  0
    1.0518  -51.8544  -24.4475 H   0  0  0  0  0  0  0  0  0  0  0  0
   -0.3439  -52.9714  -30.3872 F   0  0  0  0  0  0  0  0  0  0  0  0
   -0.0976  -52.8997  -29.0473 C   0  0  0  0  0  0  0  0  0  0  0  0
    1.1054  -53.2649  -28.5047 C   0  0  0  0  0  0  0  0  0  0  0  0
    1.3247  -53.1766  -27.1191 C   0  0  0  0  0  0  0  0  0  0  0  0
    0.3656  -52.7323  -26.2663 C   0  0  0  0  0  0  0  0  0  0  0  0
   -0.8625  -52.3621  -26.8473 C   0  0  0  0  0  0  0  0  0  0  0  0
   -1.0895  -52.4437  -28.2036 C   0  0  0  0  0  0  0  0  0  0  0  0
    2.0998  -48.6810  -17.4439 C   0  0  0  0  0  0  0  0  0  0  0  0
    3.4155  -49.2786  -17.0716 C   0  0  0  0  0  0  0  0  0  0  0  0
    3.3307  -50.5951  -16.3700 C   0  0  0  0  0  0  0  0  0  0  0  0
    2.3236  -50.6351  -15.2470 C   0  0  0  0  0  0  0  0  0  0  0  0
    1.7128  -49.3033  -15.1968 N   0  0  0  0  0  0  0  0  0  0  0  0
    1.0296  -48.9154  -16.3978 C   0  0  0  0  0  0  0  0  0  0  0  0
    1.7909  -48.4868  -14.0603 C   0  0  0  0  0  0  0  0  0  0  0  0
    2.4004  -48.9864  -13.0812 O   0  0  0  0  0  0  0  0  0  0  0  0
    1.2451  -47.2195  -13.9979 N   0  0  0  0  0  0  0  0  0  0  0  0
    0.7430  -46.9065  -14.9327 H   0  0  0  0  0  0  0  0  0  0  0  0
    1.1873  -46.2159  -13.0102 C   0  0  0  0  0  0  0  0  0  0  0  0
    2.3407  -45.8481  -12.1926 C   0  0  0  0  0  0  0  0  0  0  0  0
    3.1155  -44.6207  -12.4031 C   0  0  0  0  0  0  0  0  0  0  0  0
    4.6230  -44.7731  -12.3477 C   0  0  0  0  0  0  0  0  0  0  0  0
    5.0603  -46.1986  -12.6314 C   0  0  0  0  0  0  0  0  0  0  0  0
    6.2254  -46.4843  -11.7413 C   0  0  0  0  0  0  0  0  0  0  0  0
    7.0198  -47.6829  -12.1307 C   0  0  0  0  0  0  0  0  0  0  0  0
    7.5218  -48.5094  -11.0300 C   0  0  0  0  0  0  0  0  0  0  0  0
    7.4452  -48.1714   -9.8375 O   0  0  0  0  0  0  0  0  0  0  0  0
    8.1222  -49.7536  -11.3505 N   0  0  0  0  0  0  0  0  0  0  0  0
    8.6142  -50.5854  -10.3904 O   0  0  0  0  0  0  0  0  0  0  0  0
    8.2198  -50.0956  -12.3299 H   0  0  0  0  0  0  0  0  0  0  0  0
    8.7041  -51.4991  -10.7054 H   0  0  0  0  0  0  0  0  0  0  0  0
 19 20  1  0  0  0
 20 21  2  0  0  0
 21 22  1  0  0  0
 22 23  2  0  0  0
 23 17  1  0  0  0
 17  7  1  0  0  0
  7  8  2  0  0  0
  8  9  1  0  0  0
  9 10  2  0  0  0
 10 11  1  0  0  0
 11 12  2  0  0  0
 12 13  1  0  0  0
 13 14  2  0  0  0
 14 15  1  0  0  0
 15 16  2  0  0  0
 14  1  1  0  0  0
  1  2  2  0  0  0
  2  3  1  0  0  0
  3  4  2  0  0  0
  4  5  1  0  0  0
  4 26  1  0  0  0
 26 27  1  0  0  0
 27 28  1  0  0  0
 28 29  1  0  0  0
 29 30  1  0  0  0
 30 31  1  0  0  0
 30 32  1  0  0  0
 32 33  2  0  0  0
 32 34  1  0  0  0
 34 36  1  0  0  0
 36 37  1  0  0  0
 37 38  1  0  0  0
 38 39  1  0  0  0
 39 40  1  0  0  0
 40 41  1  0  0  0
 41 42  1  0  0  0
 42 43  1  0  0  0
 43 44  2  0  0  0
 43 45  1  0  0  0
 45 46  1  0  0  0
 23 24  1  0  0  0
 24 25  2  0  0  0
 25 20  1  0  0  0
 16  7  1  0  0  0
  5  1  1  0  0  0
 31 26  1  0  0  0
 16 11  1  0  0  0
 17 18  1  0  0  0
  5  6  1  0  0  0
 34 35  1  0  0  0
 45 47  1  0  0  0
 46 48  1  0  0  0
M  END
> <minimizedAffinity>
-8.05757

> <CNNscore>
0.4964207709

> <CNNaffinity>
7.0505437851

> <CNN_VS>
3.5000364780

> <CNNaffinity_variance>
0.5884672999

$$$$
[H]ON([H])C(=O)C([H])([H])C([H])([H])C([H])([H])C([H])([H])C([H])([H])C([H])([H])C([H])([H])N([H])C(=O)N1C([H])([H])C([H])([H])C([H])([H])C([H])(c2nc([H])c(-c3c([H])c([H])c4nc([H])nc(N([H])c5c([H])c([H])c(F)c([H])c5[H])c4c3[H])n2[H])C1([H])[H]


 48 52  0  0  0  0  0  0  0  0999 V2000
    2.0684  -50.5467  -20.7052 C   0  0  0  0  0  0  0  0  0  0  0  0
    1.9622  -49.7242  -19.6029 C   0  0  0  0  0  0  0  0  0  0  0  0
    2.8974  -48.7645  -19.7167 N   0  0  0  0  0  0  0  0  0  0  0  0
    3.5997  -48.9403  -20.8501 C   0  0  0  0  0  0  0  0  0  0  0  0
    3.0813  -50.0301  -21.4389 N   0  0  0  0  0  0  0  0  0  0  0  0
    3.3660  -50.4781  -22.3373 H   0  0  0  0  0  0  0  0  0  0  0  0
   -0.4316  -53.1347  -23.9229 C   0  0  0  0  0  0  0  0  0  0  0  0
   -1.1558  -54.2436  -24.1445 N   0  0  0  0  0  0  0  0  0  0  0  0
   -1.4239  -55.1672  -23.2112 C   0  0  0  0  0  0  0  0  0  0  0  0
   -0.9666  -55.0270  -21.9612 N   0  0  0  0  0  0  0  0  0  0  0  0
   -0.2401  -53.9574  -21.6548 C   0  0  0  0  0  0  0  0  0  0  0  0
    0.2405  -53.8013  -20.3626 C   0  0  0  0  0  0  0  0  0  0  0  0
    0.9917  -52.6830  -20.0718 C   0  0  0  0  0  0  0  0  0  0  0  0
    1.2708  -51.7305  -21.0260 C   0  0  0  0  0  0  0  0  0  0  0  0
    0.7945  -51.8818  -22.3162 C   0  0  0  0  0  0  0  0  0  0  0  0
    0.0420  -52.9899  -22.6297 C   0  0  0  0  0  0  0  0  0  0  0  0
   -0.2119  -52.1824  -24.9265 N   0  0  0  0  0  0  0  0  0  0  0  0
    0.0592  -51.1911  -24.6507 H   0  0  0  0  0  0  0  0  0  0  0  0
   -1.1844  -53.3260  -30.3154 F   0  0  0  0  0  0  0  0  0  0  0  0
   -0.8940  -53.0568  -29.0098 C   0  0  0  0  0  0  0  0  0  0  0  0
    0.3501  -53.2696  -28.4789 C   0  0  0  0  0  0  0  0  0  0  0  0
    0.6141  -52.9794  -27.1291 C   0  0  0  0  0  0  0  0  0  0  0  0
   -0.3405  -52.4827  -26.3005 C   0  0  0  0  0  0  0  0  0  0  0  0
   -1.6114  -52.2717  -26.8690 C   0  0  0  0  0  0  0  0  0  0  0  0
   -1.8824  -52.5518  -28.1903 C   0  0  0  0  0  0  0  0  0  0  0  0
    4.7408  -48.1012  -21.3619 C   0  0  0  0  0  0  0  0  0  0  0  0
    4.3189  -46.6918  -21.6118 C   0  0  0  0  0  0  0  0  0  0  0  0
    3.6481  -46.4614  -22.9269 C   0  0  0  0  0  0  0  0  0  0  0  0
    4.3601  -47.0832  -24.1031 C   0  0  0  0  0  0  0  0  0  0  0  0
    5.5442  -47.7537  -23.5575 N   0  0  0  0  0  0  0  0  0  0  0  0
    5.2573  -48.7907  -22.6079 C   0  0  0  0  0  0  0  0  0  0  0  0
    6.8457  -47.4057  -23.9442 C   0  0  0  0  0  0  0  0  0  0  0  0
    6.9239  -46.4959  -24.8079 O   0  0  0  0  0  0  0  0  0  0  0  0
    7.9768  -48.0057  -23.4261 N   0  0  0  0  0  0  0  0  0  0  0  0
    7.7593  -48.7855  -22.6722 H   0  0  0  0  0  0  0  0  0  0  0  0
    9.3620  -47.8458  -23.6306 C   0  0  0  0  0  0  0  0  0  0  0  0
    9.9236  -46.7222  -24.3765 C   0  0  0  0  0  0  0  0  0  0  0  0
   11.3518  -46.5975  -24.6860 C   0  0  0  0  0  0  0  0  0  0  0  0
   11.6954  -45.7346  -25.8843 C   0  0  0  0  0  0  0  0  0  0  0  0
   11.5730  -46.5003  -27.1891 C   0  0  0  0  0  0  0  0  0  0  0  0
   12.6254  -47.5603  -27.1748 C   0  0  0  0  0  0  0  0  0  0  0  0
   12.2738  -48.7891  -27.9403 C   0  0  0  0  0  0  0  0  0  0  0  0
   12.0508  -48.6120  -29.3774 C   0  0  0  0  0  0  0  0  0  0  0  0
   10.9298  -48.6935  -29.9057 O   0  0  0  0  0  0  0  0  0  0  0  0
   13.1741  -48.3342  -30.1973 N   0  0  0  0  0  0  0  0  0  0  0  0
   13.0580  -48.1540  -31.5426 O   0  0  0  0  0  0  0  0  0  0  0  0
   14.1415  -48.2548  -29.8183 H   0  0  0  0  0  0  0  0  0  0  0  0
   13.8168  -47.6788  -31.9174 H   0  0  0  0  0  0  0  0  0  0  0  0
 19 20  1  0  0  0
 20 21  2  0  0  0
 21 22  1  0  0  0
 22 23  2  0  0  0
 23 17  1  0  0  0
 17  7  1  0  0  0
  7  8  2  0  0  0
  8  9  1  0  0  0
  9 10  2  0  0  0
 10 11  1  0  0  0
 11 12  2  0  0  0
 12 13  1  0  0  0
 13 14  2  0  0  0
 14 15  1  0  0  0
 15 16  2  0  0  0
 14  1  1  0  0  0
  1  2  2  0  0  0
  2  3  1  0  0  0
  3  4  2  0  0  0
  4  5  1  0  0  0
  4 26  1  0  0  0
 26 27  1  0  0  0
 27 28  1  0  0  0
 28 29  1  0  0  0
 29 30  1  0  0  0
 30 31  1  0  0  0
 30 32  1  0  0  0
 32 33  2  0  0  0
 32 34  1  0  0  0
 34 36  1  0  0  0
 36 37  1  0  0  0
 37 38  1  0  0  0
 38 39  1  0  0  0
 39 40  1  0  0  0
 40 41  1  0  0  0
 41 42  1  0  0  0
 42 43  1  0  0  0
 43 44  2  0  0  0
 43 45  1  0  0  0
 45 46  1  0  0  0
 23 24  1  0  0  0
 24 25  2  0  0  0
 25 20  1  0  0  0
 16  7  1  0  0  0
  5  1  1  0  0  0
 31 26  1  0  0  0
 16 11  1  0  0  0
 17 18  1  0  0  0
  5  6  1  0  0  0
 34 35  1  0  0  0
 45 47  1  0  0  0
 46 48  1  0  0  0
M  END
> <minimizedAffinity>
-7.88013

> <CNNscore>
0.4862557650

> <CNNaffinity>
7.3496565819

> <CNN_VS>
3.5738129616

> <CNNaffinity_variance>
0.7140648365

$$$$
[H]ON([H])C(=O)C([H])([H])C([H])([H])C([H])([H])C([H])([H])C([H])([H])C([H])([H])C([H])([H])N([H])C(=O)N1C([H])([H])C([H])([H])C([H])([H])C([H])(c2nc([H])c(-c3c([H])c([H])c4nc([H])nc(N([H])c5c([H])c([H])c(F)c([H])c5[H])c4c3[H])n2[H])C1([H])[H]


 48 52  0  0  0  0  0  0  0  0999 V2000
    1.3669  -50.6459  -20.4214 C   0  0  0  0  0  0  0  0  0  0  0  0
    1.0257  -49.3134  -20.5262 C   0  0  0  0  0  0  0  0  0  0  0  0
    2.0208  -48.5920  -19.9802 N   0  0  0  0  0  0  0  0  0  0  0  0
    2.9872  -49.4112  -19.5290 C   0  0  0  0  0  0  0  0  0  0  0  0
    2.5719  -50.6577  -19.8059 N   0  0  0  0  0  0  0  0  0  0  0  0
    3.0548  -51.5608  -19.6053 H   0  0  0  0  0  0  0  0  0  0  0  0
   -0.1254  -53.5238  -23.9981 C   0  0  0  0  0  0  0  0  0  0  0  0
   -0.8493  -54.6034  -24.3352 N   0  0  0  0  0  0  0  0  0  0  0  0
   -1.5340  -55.3542  -23.4615 C   0  0  0  0  0  0  0  0  0  0  0  0
   -1.5323  -55.0555  -22.1568 N   0  0  0  0  0  0  0  0  0  0  0  0
   -0.8406  -54.0019  -21.7358 C   0  0  0  0  0  0  0  0  0  0  0  0
   -0.8303  -53.6826  -20.3856 C   0  0  0  0  0  0  0  0  0  0  0  0
   -0.1046  -52.5851  -19.9757 C   0  0  0  0  0  0  0  0  0  0  0  0
    0.6010  -51.8096  -20.8681 C   0  0  0  0  0  0  0  0  0  0  0  0
    0.5945  -52.1241  -22.2156 C   0  0  0  0  0  0  0  0  0  0  0  0
   -0.1233  -53.2150  -22.6481 C   0  0  0  0  0  0  0  0  0  0  0  0
    0.5423  -52.7522  -24.9577 N   0  0  0  0  0  0  0  0  0  0  0  0
    1.2723  -52.0463  -24.6396 H   0  0  0  0  0  0  0  0  0  0  0  0
   -0.9277  -53.0871  -30.3448 F   0  0  0  0  0  0  0  0  0  0  0  0
   -0.5194  -53.0238  -29.0446 C   0  0  0  0  0  0  0  0  0  0  0  0
    0.6874  -53.5224  -28.6324 C   0  0  0  0  0  0  0  0  0  0  0  0
    1.0763  -53.4387  -27.2843 C   0  0  0  0  0  0  0  0  0  0  0  0
    0.2828  -52.8683  -26.3411 C   0  0  0  0  0  0  0  0  0  0  0  0
   -0.9527  -52.3623  -26.7888 C   0  0  0  0  0  0  0  0  0  0  0  0
   -1.3450  -52.4380  -28.1071 C   0  0  0  0  0  0  0  0  0  0  0  0
    4.2718  -49.0248  -18.8442 C   0  0  0  0  0  0  0  0  0  0  0  0
    4.0941  -47.8224  -17.9785 C   0  0  0  0  0  0  0  0  0  0  0  0
    4.1633  -46.5150  -18.6985 C   0  0  0  0  0  0  0  0  0  0  0  0
    5.3283  -46.3923  -19.6498 C   0  0  0  0  0  0  0  0  0  0  0  0
    6.0610  -47.6593  -19.5657 N   0  0  0  0  0  0  0  0  0  0  0  0
    5.2973  -48.8154  -19.9393 C   0  0  0  0  0  0  0  0  0  0  0  0
    7.4006  -47.7232  -19.1582 C   0  0  0  0  0  0  0  0  0  0  0  0
    7.9345  -46.6166  -18.8932 O   0  0  0  0  0  0  0  0  0  0  0  0
    8.1040  -48.9067  -19.0476 N   0  0  0  0  0  0  0  0  0  0  0  0
    7.5087  -49.8023  -19.3070 H   0  0  0  0  0  0  0  0  0  0  0  0
    9.4184  -49.2431  -18.6663 C   0  0  0  0  0  0  0  0  0  0  0  0
   10.5629  -49.0845  -19.5602 C   0  0  0  0  0  0  0  0  0  0  0  0
   11.3736  -47.8636  -19.6178 C   0  0  0  0  0  0  0  0  0  0  0  0
   12.6422  -47.8728  -18.7876 C   0  0  0  0  0  0  0  0  0  0  0  0
   13.0102  -46.4842  -18.2978 C   0  0  0  0  0  0  0  0  0  0  0  0
   11.7526  -45.6782  -18.2817 C   0  0  0  0  0  0  0  0  0  0  0  0
   11.2556  -45.3376  -16.9192 C   0  0  0  0  0  0  0  0  0  0  0  0
   10.3816  -46.3278  -16.2852 C   0  0  0  0  0  0  0  0  0  0  0  0
   10.8089  -47.3480  -15.7204 O   0  0  0  0  0  0  0  0  0  0  0  0
    8.9819  -46.1028  -16.3225 N   0  0  0  0  0  0  0  0  0  0  0  0
    8.0967  -46.9705  -15.7574 O   0  0  0  0  0  0  0  0  0  0  0  0
    8.5580  -45.2689  -16.7815 H   0  0  0  0  0  0  0  0  0  0  0  0
    7.2357  -46.5575  -15.5839 H   0  0  0  0  0  0  0  0  0  0  0  0
 19 20  1  0  0  0
 20 21  2  0  0  0
 21 22  1  0  0  0
 22 23  2  0  0  0
 23 17  1  0  0  0
 17  7  1  0  0  0
  7  8  2  0  0  0
  8  9  1  0  0  0
  9 10  2  0  0  0
 10 11  1  0  0  0
 11 12  2  0  0  0
 12 13  1  0  0  0
 13 14  2  0  0  0
 14 15  1  0  0  0
 15 16  2  0  0  0
 14  1  1  0  0  0
  1  2  2  0  0  0
  2  3  1  0  0  0
  3  4  2  0  0  0
  4  5  1  0  0  0
  4 26  1  0  0  0
 26 27  1  0  0  0
 27 28  1  0  0  0
 28 29  1  0  0  0
 29 30  1  0  0  0
 30 31  1  0  0  0
 30 32  1  0  0  0
 32 33  2  0  0  0
 32 34  1  0  0  0
 34 36  1  0  0  0
 36 37  1  0  0  0
 37 38  1  0  0  0
 38 39  1  0  0  0
 39 40  1  0  0  0
 40 41  1  0  0  0
 41 42  1  0  0  0
 42 43  1  0  0  0
 43 44  2  0  0  0
 43 45  1  0  0  0
 45 46  1  0  0  0
 23 24  1  0  0  0
 24 25  2  0  0  0
 25 20  1  0  0  0
 16  7  1  0  0  0
  5  1  1  0  0  0
 31 26  1  0  0  0
 16 11  1  0  0  0
 17 18  1  0  0  0
  5  6  1  0  0  0
 34 35  1  0  0  0
 45 47  1  0  0  0
 46 48  1  0  0  0
M  END
> <minimizedAffinity>
-7.90127

> <CNNscore>
0.4504325390

> <CNNaffinity>
7.1755943298

> <CNN_VS>
3.2321212292

> <CNNaffinity_variance>
0.3945202231

$$$$
[H]ON([H])C(=O)C([H])([H])C([H])([H])C([H])([H])C([H])([H])C([H])([H])C([H])([H])C([H])([H])N([H])C(=O)N1C([H])([H])C([H])([H])C([H])([H])C([H])(c2nc([H])c(-c3c([H])c([H])c4nc([H])nc(N([H])c5c([H])c([H])c(F)c([H])c5[H])c4c3[H])n2[H])C1([H])[H]


 48 52  0  0  0  0  0  0  0  0999 V2000
    2.2869  -50.9257  -20.6960 C   0  0  0  0  0  0  0  0  0  0  0  0
    3.4007  -50.4926  -21.3849 C   0  0  0  0  0  0  0  0  0  0  0  0
    3.9224  -49.4541  -20.7081 N   0  0  0  0  0  0  0  0  0  0  0  0
    3.1854  -49.2045  -19.6112 C   0  0  0  0  0  0  0  0  0  0  0  0
    2.1939  -50.1100  -19.6202 N   0  0  0  0  0  0  0  0  0  0  0  0
    1.4212  -50.2312  -18.9295 H   0  0  0  0  0  0  0  0  0  0  0  0
   -0.1520  -53.4153  -24.0358 C   0  0  0  0  0  0  0  0  0  0  0  0
   -0.9832  -54.4418  -24.2786 N   0  0  0  0  0  0  0  0  0  0  0  0
   -1.4690  -55.2576  -23.3329 C   0  0  0  0  0  0  0  0  0  0  0  0
   -1.1388  -55.0851  -22.0474 N   0  0  0  0  0  0  0  0  0  0  0  0
   -0.3197  -54.0918  -21.7180 C   0  0  0  0  0  0  0  0  0  0  0  0
    0.0309  -53.9034  -20.3889 C   0  0  0  0  0  0  0  0  0  0  0  0
    0.8822  -52.8661  -20.0748 C   0  0  0  0  0  0  0  0  0  0  0  0
    1.3848  -52.0245  -21.0415 C   0  0  0  0  0  0  0  0  0  0  0  0
    1.0389  -52.2085  -22.3685 C   0  0  0  0  0  0  0  0  0  0  0  0
    0.1901  -53.2372  -22.7058 C   0  0  0  0  0  0  0  0  0  0  0  0
    0.2975  -52.5703  -25.0585 N   0  0  0  0  0  0  0  0  0  0  0  0
    0.9890  -51.7959  -24.8253 H   0  0  0  0  0  0  0  0  0  0  0  0
   -0.9667  -53.1459  -30.4774 F   0  0  0  0  0  0  0  0  0  0  0  0
   -0.7112  -52.9949  -29.1458 C   0  0  0  0  0  0  0  0  0  0  0  0
   -1.6580  -52.5413  -28.2668 C   0  0  0  0  0  0  0  0  0  0  0  0
   -1.3600  -52.3992  -26.9005 C   0  0  0  0  0  0  0  0  0  0  0  0
   -0.1350  -52.6998  -26.3967 C   0  0  0  0  0  0  0  0  0  0  0  0
    0.8217  -53.1648  -27.3195 C   0  0  0  0  0  0  0  0  0  0  0  0
    0.5417  -53.3086  -28.6605 C   0  0  0  0  0  0  0  0  0  0  0  0
    3.4088  -48.1290  -18.5809 C   0  0  0  0  0  0  0  0  0  0  0  0
    3.2729  -46.7650  -19.1705 C   0  0  0  0  0  0  0  0  0  0  0  0
    4.4938  -46.2578  -19.8668 C   0  0  0  0  0  0  0  0  0  0  0  0
    5.7727  -46.4405  -19.0870 C   0  0  0  0  0  0  0  0  0  0  0  0
    5.3962  -47.0934  -17.8296 N   0  0  0  0  0  0  0  0  0  0  0  0
    4.7797  -48.3797  -17.9872 C   0  0  0  0  0  0  0  0  0  0  0  0
    5.6301  -46.5022  -16.5804 C   0  0  0  0  0  0  0  0  0  0  0  0
    6.2058  -45.3855  -16.6144 O   0  0  0  0  0  0  0  0  0  0  0  0
    5.2622  -47.0865  -15.3841 N   0  0  0  0  0  0  0  0  0  0  0  0
    4.7605  -48.0650  -15.5043 H   0  0  0  0  0  0  0  0  0  0  0  0
    5.3704  -46.7156  -14.0288 C   0  0  0  0  0  0  0  0  0  0  0  0
    4.2889  -46.9185  -13.0679 C   0  0  0  0  0  0  0  0  0  0  0  0
    2.9273  -47.2977  -13.4596 C   0  0  0  0  0  0  0  0  0  0  0  0
    2.5646  -48.7564  -13.2611 C   0  0  0  0  0  0  0  0  0  0  0  0
    2.6750  -49.5493  -14.5506 C   0  0  0  0  0  0  0  0  0  0  0  0
    3.8306  -50.4827  -14.3927 C   0  0  0  0  0  0  0  0  0  0  0  0
    3.4492  -51.9110  -14.2086 C   0  0  0  0  0  0  0  0  0  0  0  0
    3.4550  -52.4076  -12.8303 C   0  0  0  0  0  0  0  0  0  0  0  0
    2.7203  -51.9491  -11.9403 O   0  0  0  0  0  0  0  0  0  0  0  0
    4.3452  -53.4628  -12.5055 N   0  0  0  0  0  0  0  0  0  0  0  0
    4.4155  -53.9860  -11.2497 O   0  0  0  0  0  0  0  0  0  0  0  0
    4.9893  -53.8908  -13.2038 H   0  0  0  0  0  0  0  0  0  0  0  0
    4.8149  -54.8706  -11.2410 H   0  0  0  0  0  0  0  0  0  0  0  0
 19 20  1  0  0  0
 20 21  2  0  0  0
 21 22  1  0  0  0
 22 23  2  0  0  0
 23 17  1  0  0  0
 17  7  1  0  0  0
  7  8  2  0  0  0
  8  9  1  0  0  0
  9 10  2  0  0  0
 10 11  1  0  0  0
 11 12  2  0  0  0
 12 13  1  0  0  0
 13 14  2  0  0  0
 14 15  1  0  0  0
 15 16  2  0  0  0
 14  1  1  0  0  0
  1  2  2  0  0  0
  2  3  1  0  0  0
  3  4  2  0  0  0
  4  5  1  0  0  0
  4 26  1  0  0  0
 26 27  1  0  0  0
 27 28  1  0  0  0
 28 29  1  0  0  0
 29 30  1  0  0  0
 30 31  1  0  0  0
 30 32  1  0  0  0
 32 33  2  0  0  0
 32 34  1  0  0  0
 34 36  1  0  0  0
 36 37  1  0  0  0
 37 38  1  0  0  0
 38 39  1  0  0  0
 39 40  1  0  0  0
 40 41  1  0  0  0
 41 42  1  0  0  0
 42 43  1  0  0  0
 43 44  2  0  0  0
 43 45  1  0  0  0
 45 46  1  0  0  0
 23 24  1  0  0  0
 24 25  2  0  0  0
 25 20  1  0  0  0
 16  7  1  0  0  0
  5  1  1  0  0  0
 31 26  1  0  0  0
 16 11  1  0  0  0
 17 18  1  0  0  0
  5  6  1  0  0  0
 34 35  1  0  0  0
 45 47  1  0  0  0
 46 48  1  0  0  0
M  END
> <minimizedAffinity>
-8.05936

> <CNNscore>
0.3259826005

> <CNNaffinity>
7.3226990700

> <CNN_VS>
2.3870725632

> <CNNaffinity_variance>
0.2163240612

$$$$
[H]ON([H])C(=O)C([H])([H])C([H])([H])C([H])([H])C([H])([H])C([H])([H])C([H])([H])C([H])([H])N([H])C(=O)N1C([H])([H])C([H])([H])C([H])([H])C([H])(c2nc([H])c(-c3c([H])c([H])c4nc([H])nc(N([H])c5c([H])c([H])c(F)c([H])c5[H])c4c3[H])n2[H])C1([H])[H]


 48 52  0  0  0  0  0  0  0  0999 V2000
    1.0537  -50.4066  -20.6385 C   0  0  0  0  0  0  0  0  0  0  0  0
    0.6887  -49.1026  -20.9022 C   0  0  0  0  0  0  0  0  0  0  0  0
    1.6261  -48.2994  -20.3686 N   0  0  0  0  0  0  0  0  0  0  0  0
    2.5785  -49.0386  -19.7725 C   0  0  0  0  0  0  0  0  0  0  0  0
    2.2133  -50.3189  -19.9467 N   0  0  0  0  0  0  0  0  0  0  0  0
    2.7027  -51.1818  -19.6227 H   0  0  0  0  0  0  0  0  0  0  0  0
   -0.2045  -53.6192  -24.0145 C   0  0  0  0  0  0  0  0  0  0  0  0
   -0.8746  -54.7510  -24.2853 N   0  0  0  0  0  0  0  0  0  0  0  0
   -1.5594  -55.4571  -23.3752 C   0  0  0  0  0  0  0  0  0  0  0  0
   -1.6137  -55.0555  -22.0996 N   0  0  0  0  0  0  0  0  0  0  0  0
   -0.9776  -53.9442  -21.7442 C   0  0  0  0  0  0  0  0  0  0  0  0
   -1.0256  -53.5181  -20.4246 C   0  0  0  0  0  0  0  0  0  0  0  0
   -0.3568  -52.3626  -20.0828 C   0  0  0  0  0  0  0  0  0  0  0  0
    0.3486  -51.6326  -21.0129 C   0  0  0  0  0  0  0  0  0  0  0  0
    0.4001  -52.0535  -22.3300 C   0  0  0  0  0  0  0  0  0  0  0  0
   -0.2602  -53.2040  -22.6947 C   0  0  0  0  0  0  0  0  0  0  0  0
    0.4655  -52.9000  -25.0125 N   0  0  0  0  0  0  0  0  0  0  0  0
    1.3197  -52.3219  -24.7507 H   0  0  0  0  0  0  0  0  0  0  0  0
   -0.7345  -52.9999  -30.4754 F   0  0  0  0  0  0  0  0  0  0  0  0
   -0.4941  -52.9626  -29.1330 C   0  0  0  0  0  0  0  0  0  0  0  0
   -1.4289  -52.5214  -28.2351 C   0  0  0  0  0  0  0  0  0  0  0  0
   -1.1472  -52.4980  -26.8582 C   0  0  0  0  0  0  0  0  0  0  0  0
    0.0498  -52.9051  -26.3622 C   0  0  0  0  0  0  0  0  0  0  0  0
    0.9946  -53.3550  -27.3044 C   0  0  0  0  0  0  0  0  0  0  0  0
    0.7304  -53.3830  -28.6561 C   0  0  0  0  0  0  0  0  0  0  0  0
    3.8031  -48.5455  -19.0476 C   0  0  0  0  0  0  0  0  0  0  0  0
    4.2092  -49.4779  -17.9557 C   0  0  0  0  0  0  0  0  0  0  0  0
    3.4628  -49.3050  -16.6729 C   0  0  0  0  0  0  0  0  0  0  0  0
    3.3431  -47.8726  -16.2138 C   0  0  0  0  0  0  0  0  0  0  0  0
    4.0292  -47.0602  -17.2229 N   0  0  0  0  0  0  0  0  0  0  0  0
    3.4741  -47.1556  -18.5429 C   0  0  0  0  0  0  0  0  0  0  0  0
    5.1330  -46.2547  -16.9108 C   0  0  0  0  0  0  0  0  0  0  0  0
    5.4770  -46.2604  -15.7020 O   0  0  0  0  0  0  0  0  0  0  0  0
    5.8106  -45.5002  -17.8486 N   0  0  0  0  0  0  0  0  0  0  0  0
    5.4026  -45.5947  -18.8725 H   0  0  0  0  0  0  0  0  0  0  0  0
    6.9218  -44.6345  -17.8047 C   0  0  0  0  0  0  0  0  0  0  0  0
    6.9700  -43.4579  -16.9401 C   0  0  0  0  0  0  0  0  0  0  0  0
    7.6099  -43.4568  -15.6205 C   0  0  0  0  0  0  0  0  0  0  0  0
    9.0042  -42.8641  -15.5626 C   0  0  0  0  0  0  0  0  0  0  0  0
    9.8633  -43.5361  -14.5071 C   0  0  0  0  0  0  0  0  0  0  0  0
    9.1448  -44.7746  -14.0815 C   0  0  0  0  0  0  0  0  0  0  0  0
    9.8950  -46.0381  -14.3268 C   0  0  0  0  0  0  0  0  0  0  0  0
    9.7979  -46.5937  -15.6789 C   0  0  0  0  0  0  0  0  0  0  0  0
   10.7649  -46.6644  -16.4550 O   0  0  0  0  0  0  0  0  0  0  0  0
    8.5358  -47.0716  -16.1145 N   0  0  0  0  0  0  0  0  0  0  0  0
    8.3555  -47.6049  -17.3550 O   0  0  0  0  0  0  0  0  0  0  0  0
    7.6844  -47.0399  -15.5145 H   0  0  0  0  0  0  0  0  0  0  0  0
    7.5590  -48.1572  -17.4064 H   0  0  0  0  0  0  0  0  0  0  0  0
 19 20  1  0  0  0
 20 21  2  0  0  0
 21 22  1  0  0  0
 22 23  2  0  0  0
 23 17  1  0  0  0
 17  7  1  0  0  0
  7  8  2  0  0  0
  8  9  1  0  0  0
  9 10  2  0  0  0
 10 11  1  0  0  0
 11 12  2  0  0  0
 12 13  1  0  0  0
 13 14  2  0  0  0
 14 15  1  0  0  0
 15 16  2  0  0  0
 14  1  1  0  0  0
  1  2  2  0  0  0
  2  3  1  0  0  0
  3  4  2  0  0  0
  4  5  1  0  0  0
  4 26  1  0  0  0
 26 27  1  0  0  0
 27 28  1  0  0  0
 28 29  1  0  0  0
 29 30  1  0  0  0
 30 31  1  0  0  0
 30 32  1  0  0  0
 32 33  2  0  0  0
 32 34  1  0  0  0
 34 36  1  0  0  0
 36 37  1  0  0  0
 37 38  1  0  0  0
 38 39  1  0  0  0
 39 40  1  0  0  0
 40 41  1  0  0  0
 41 42  1  0  0  0
 42 43  1  0  0  0
 43 44  2  0  0  0
 43 45  1  0  0  0
 45 46  1  0  0  0
 23 24  1  0  0  0
 24 25  2  0  0  0
 25 20  1  0  0  0
 16  7  1  0  0  0
  5  1  1  0  0  0
 31 26  1  0  0  0
 16 11  1  0  0  0
 17 18  1  0  0  0
  5  6  1  0  0  0
 34 35  1  0  0  0
 45 47  1  0  0  0
 46 48  1  0  0  0
M  END
> <minimizedAffinity>
-7.40386

> <CNNscore>
0.3254838288

> <CNNaffinity>
7.1014342308

> <CNN_VS>
2.3114020824

> <CNNaffinity_variance>
1.2374559641

$$$$
[H]ON([H])C(=O)C([H])([H])C([H])([H])C([H])([H])C([H])([H])C([H])([H])C([H])([H])C([H])([H])N([H])C(=O)N1C([H])([H])C([H])([H])C([H])([H])C([H])(c2nc([H])c(-c3c([H])c([H])c4nc([H])nc(N([H])c5c([H])c([H])c(F)c([H])c5[H])c4c3[H])n2[H])C1([H])[H]


 48 52  0  0  0  0  0  0  0  0999 V2000
    1.8061  -49.6204  -21.9681 C   0  0  0  0  0  0  0  0  0  0  0  0
    1.7318  -48.6784  -20.9630 C   0  0  0  0  0  0  0  0  0  0  0  0
    2.4203  -47.5955  -21.3654 N   0  0  0  0  0  0  0  0  0  0  0  0
    2.9337  -47.8072  -22.5903 C   0  0  0  0  0  0  0  0  0  0  0  0
    2.5497  -49.0451  -22.9413 N   0  0  0  0  0  0  0  0  0  0  0  0
    2.7565  -49.5614  -23.8242 H   0  0  0  0  0  0  0  0  0  0  0  0
   -0.8627  -52.9560  -24.2158 C   0  0  0  0  0  0  0  0  0  0  0  0
   -1.3699  -54.1986  -24.1691 N   0  0  0  0  0  0  0  0  0  0  0  0
   -1.1778  -55.0530  -23.1548 C   0  0  0  0  0  0  0  0  0  0  0  0
   -0.4424  -54.6988  -22.0941 N   0  0  0  0  0  0  0  0  0  0  0  0
    0.0980  -53.4853  -22.0583 C   0  0  0  0  0  0  0  0  0  0  0  0
    0.8633  -53.1068  -20.9647 C   0  0  0  0  0  0  0  0  0  0  0  0
    1.4125  -51.8429  -20.9531 C   0  0  0  0  0  0  0  0  0  0  0  0
    1.2191  -50.9603  -21.9920 C   0  0  0  0  0  0  0  0  0  0  0  0
    0.4572  -51.3330  -23.0852 C   0  0  0  0  0  0  0  0  0  0  0  0
   -0.1014  -52.5898  -23.1186 C   0  0  0  0  0  0  0  0  0  0  0  0
   -1.1252  -52.0901  -25.2851 N   0  0  0  0  0  0  0  0  0  0  0  0
   -1.6746  -51.1965  -25.1062 H   0  0  0  0  0  0  0  0  0  0  0  0
    0.1387  -53.2094  -30.6183 F   0  0  0  0  0  0  0  0  0  0  0  0
   -0.1159  -52.9333  -29.3067 C   0  0  0  0  0  0  0  0  0  0  0  0
    0.8771  -52.8760  -28.3658 C   0  0  0  0  0  0  0  0  0  0  0  0
    0.5782  -52.5874  -27.0229 C   0  0  0  0  0  0  0  0  0  0  0  0
   -0.6925  -52.3565  -26.6028 C   0  0  0  0  0  0  0  0  0  0  0  0
   -1.6963  -52.4201  -27.5883 C   0  0  0  0  0  0  0  0  0  0  0  0
   -1.4161  -52.7018  -28.9073 C   0  0  0  0  0  0  0  0  0  0  0  0
    3.7749  -46.8630  -23.4082 C   0  0  0  0  0  0  0  0  0  0  0  0
    3.3080  -45.4521  -23.2736 C   0  0  0  0  0  0  0  0  0  0  0  0
    2.1588  -45.0847  -24.1549 C   0  0  0  0  0  0  0  0  0  0  0  0
    2.3144  -45.5219  -25.5908 C   0  0  0  0  0  0  0  0  0  0  0  0
    3.6083  -46.2063  -25.6727 N   0  0  0  0  0  0  0  0  0  0  0  0
    3.7227  -47.3666  -24.8360 C   0  0  0  0  0  0  0  0  0  0  0  0
    4.6401  -45.7581  -26.5087 C   0  0  0  0  0  0  0  0  0  0  0  0
    4.3691  -44.7435  -27.1993 O   0  0  0  0  0  0  0  0  0  0  0  0
    5.8754  -46.3714  -26.5844 N   0  0  0  0  0  0  0  0  0  0  0  0
    5.9762  -47.2491  -25.9185 H   0  0  0  0  0  0  0  0  0  0  0  0
    7.0558  -46.1293  -27.3153 C   0  0  0  0  0  0  0  0  0  0  0  0
    7.0825  -46.0812  -28.7751 C   0  0  0  0  0  0  0  0  0  0  0  0
    6.9836  -47.2761  -29.6198 C   0  0  0  0  0  0  0  0  0  0  0  0
    7.6935  -47.2004  -30.9574 C   0  0  0  0  0  0  0  0  0  0  0  0
    6.7708  -47.5510  -32.1104 C   0  0  0  0  0  0  0  0  0  0  0  0
    7.5982  -47.5333  -33.3540 C   0  0  0  0  0  0  0  0  0  0  0  0
    6.8524  -47.8800  -34.5961 C   0  0  0  0  0  0  0  0  0  0  0  0
    5.3987  -47.7048  -34.5458 C   0  0  0  0  0  0  0  0  0  0  0  0
    4.8499  -46.5914  -34.5067 O   0  0  0  0  0  0  0  0  0  0  0  0
    4.5867  -48.8674  -34.5421 N   0  0  0  0  0  0  0  0  0  0  0  0
    3.2269  -48.7972  -34.4983 O   0  0  0  0  0  0  0  0  0  0  0  0
    4.9829  -49.8307  -34.5714 H   0  0  0  0  0  0  0  0  0  0  0  0
    2.8056  -49.6149  -34.8081 H   0  0  0  0  0  0  0  0  0  0  0  0
 19 20  1  0  0  0
 20 21  2  0  0  0
 21 22  1  0  0  0
 22 23  2  0  0  0
 23 17  1  0  0  0
 17  7  1  0  0  0
  7  8  2  0  0  0
  8  9  1  0  0  0
  9 10  2  0  0  0
 10 11  1  0  0  0
 11 12  2  0  0  0
 12 13  1  0  0  0
 13 14  2  0  0  0
 14 15  1  0  0  0
 15 16  2  0  0  0
 14  1  1  0  0  0
  1  2  2  0  0  0
  2  3  1  0  0  0
  3  4  2  0  0  0
  4  5  1  0  0  0
  4 26  1  0  0  0
 26 27  1  0  0  0
 27 28  1  0  0  0
 28 29  1  0  0  0
 29 30  1  0  0  0
 30 31  1  0  0  0
 30 32  1  0  0  0
 32 33  2  0  0  0
 32 34  1  0  0  0
 34 36  1  0  0  0
 36 37  1  0  0  0
 37 38  1  0  0  0
 38 39  1  0  0  0
 39 40  1  0  0  0
 40 41  1  0  0  0
 41 42  1  0  0  0
 42 43  1  0  0  0
 43 44  2  0  0  0
 43 45  1  0  0  0
 45 46  1  0  0  0
 23 24  1  0  0  0
 24 25  2  0  0  0
 25 20  1  0  0  0
 16  7  1  0  0  0
  5  1  1  0  0  0
 31 26  1  0  0  0
 16 11  1  0  0  0
 17 18  1  0  0  0
  5  6  1  0  0  0
 34 35  1  0  0  0
 45 47  1  0  0  0
 46 48  1  0  0  0
M  END
> <minimizedAffinity>
-8.10929

> <CNNscore>
0.3007366061

> <CNNaffinity>
7.4457597733

> <CNN_VS>
2.2392125130

> <CNNaffinity_variance>
0.3613795638

$$$$
[H]ON([H])C(=O)C([H])([H])C([H])([H])C([H])([H])C([H])([H])C([H])([H])C([H])([H])C([H])([H])N([H])C(=O)N1C([H])([H])C([H])([H])C([H])([H])C([H])(c2nc([H])c(-c3c([H])c([H])c4nc([H])nc(N([H])c5c([H])c([H])c(F)c([H])c5[H])c4c3[H])n2[H])C1([H])[H]


 48 52  0  0  0  0  0  0  0  0999 V2000
    1.2105  -50.6208  -20.2136 C   0  0  0  0  0  0  0  0  0  0  0  0
    1.0399  -49.2943  -20.5516 C   0  0  0  0  0  0  0  0  0  0  0  0
    1.9513  -48.5779  -19.8700 N   0  0  0  0  0  0  0  0  0  0  0  0
    2.7001  -49.3944  -19.1075 C   0  0  0  0  0  0  0  0  0  0  0  0
    2.2347  -50.6342  -19.3294 N   0  0  0  0  0  0  0  0  0  0  0  0
    2.5642  -51.5335  -18.9149 H   0  0  0  0  0  0  0  0  0  0  0  0
   -0.1516  -53.4875  -23.8507 C   0  0  0  0  0  0  0  0  0  0  0  0
   -0.8710  -54.5600  -24.2188 N   0  0  0  0  0  0  0  0  0  0  0  0
   -1.6016  -55.3025  -23.3757 C   0  0  0  0  0  0  0  0  0  0  0  0
   -1.6547  -55.0022  -22.0725 N   0  0  0  0  0  0  0  0  0  0  0  0
   -0.9714  -53.9553  -21.6220 C   0  0  0  0  0  0  0  0  0  0  0  0
   -1.0177  -53.6345  -20.2730 C   0  0  0  0  0  0  0  0  0  0  0  0
   -0.2995  -52.5441  -19.8321 C   0  0  0  0  0  0  0  0  0  0  0  0
    0.4531  -51.7771  -20.6930 C   0  0  0  0  0  0  0  0  0  0  0  0
    0.5031  -52.0931  -22.0391 C   0  0  0  0  0  0  0  0  0  0  0  0
   -0.2061  -53.1771  -22.5022 C   0  0  0  0  0  0  0  0  0  0  0  0
    0.5661  -52.7242  -24.7804 N   0  0  0  0  0  0  0  0  0  0  0  0
    1.3144  -52.0522  -24.4328 H   0  0  0  0  0  0  0  0  0  0  0  0
   -0.8085  -52.9824  -30.1968 F   0  0  0  0  0  0  0  0  0  0  0  0
   -0.4214  -52.9305  -28.8896 C   0  0  0  0  0  0  0  0  0  0  0  0
    0.8370  -53.2878  -28.4853 C   0  0  0  0  0  0  0  0  0  0  0  0
    1.2019  -53.2206  -27.1295 C   0  0  0  0  0  0  0  0  0  0  0  0
    0.3340  -52.8049  -26.1711 C   0  0  0  0  0  0  0  0  0  0  0  0
   -0.9536  -52.4422  -26.6109 C   0  0  0  0  0  0  0  0  0  0  0  0
   -1.3231  -52.5035  -27.9366 C   0  0  0  0  0  0  0  0  0  0  0  0
    3.8259  -49.0106  -18.1837 C   0  0  0  0  0  0  0  0  0  0  0  0
    3.3533  -48.8483  -16.7777 C   0  0  0  0  0  0  0  0  0  0  0  0
    2.7391  -47.5211  -16.4712 C   0  0  0  0  0  0  0  0  0  0  0  0
    3.5363  -46.3400  -16.9674 C   0  0  0  0  0  0  0  0  0  0  0  0
    4.7210  -46.8943  -17.6295 N   0  0  0  0  0  0  0  0  0  0  0  0
    4.4347  -47.7442  -18.7499 C   0  0  0  0  0  0  0  0  0  0  0  0
    6.0230  -46.6056  -17.1982 C   0  0  0  0  0  0  0  0  0  0  0  0
    6.1027  -45.8203  -16.2201 O   0  0  0  0  0  0  0  0  0  0  0  0
    7.1530  -47.1352  -17.7902 N   0  0  0  0  0  0  0  0  0  0  0  0
    6.9339  -47.8139  -18.6359 H   0  0  0  0  0  0  0  0  0  0  0  0
    8.5380  -47.0178  -17.5572 C   0  0  0  0  0  0  0  0  0  0  0  0
    9.5290  -47.8055  -18.2864 C   0  0  0  0  0  0  0  0  0  0  0  0
    9.2056  -49.0520  -18.9882 C   0  0  0  0  0  0  0  0  0  0  0  0
    8.9129  -48.9195  -20.4699 C   0  0  0  0  0  0  0  0  0  0  0  0
    7.7928  -49.8433  -20.9122 C   0  0  0  0  0  0  0  0  0  0  0  0
    6.5943  -48.9882  -21.1649 C   0  0  0  0  0  0  0  0  0  0  0  0
    5.6949  -49.4893  -22.2416 C   0  0  0  0  0  0  0  0  0  0  0  0
    5.3461  -50.9109  -22.1810 C   0  0  0  0  0  0  0  0  0  0  0  0
    4.6029  -51.3912  -21.3097 O   0  0  0  0  0  0  0  0  0  0  0  0
    5.8872  -51.7730  -23.1686 N   0  0  0  0  0  0  0  0  0  0  0  0
    5.6145  -53.1075  -23.1887 O   0  0  0  0  0  0  0  0  0  0  0  0
    6.5184  -51.4352  -23.9257 H   0  0  0  0  0  0  0  0  0  0  0  0
    5.7815  -53.5046  -24.0584 H   0  0  0  0  0  0  0  0  0  0  0  0
 19 20  1  0  0  0
 20 21  2  0  0  0
 21 22  1  0  0  0
 22 23  2  0  0  0
 23 17  1  0  0  0
 17  7  1  0  0  0
  7  8  2  0  0  0
  8  9  1  0  0  0
  9 10  2  0  0  0
 10 11  1  0  0  0
 11 12  2  0  0  0
 12 13  1  0  0  0
 13 14  2  0  0  0
 14 15  1  0  0  0
 15 16  2  0  0  0
 14  1  1  0  0  0
  1  2  2  0  0  0
  2  3  1  0  0  0
  3  4  2  0  0  0
  4  5  1  0  0  0
  4 26  1  0  0  0
 26 27  1  0  0  0
 27 28  1  0  0  0
 28 29  1  0  0  0
 29 30  1  0  0  0
 30 31  1  0  0  0
 30 32  1  0  0  0
 32 33  2  0  0  0
 32 34  1  0  0  0
 34 36  1  0  0  0
 36 37  1  0  0  0
 37 38  1  0  0  0
 38 39  1  0  0  0
 39 40  1  0  0  0
 40 41  1  0  0  0
 41 42  1  0  0  0
 42 43  1  0  0  0
 43 44  2  0  0  0
 43 45  1  0  0  0
 45 46  1  0  0  0
 23 24  1  0  0  0
 24 25  2  0  0  0
 25 20  1  0  0  0
 16  7  1  0  0  0
  5  1  1  0  0  0
 31 26  1  0  0  0
 16 11  1  0  0  0
 17 18  1  0  0  0
  5  6  1  0  0  0
 34 35  1  0  0  0
 45 47  1  0  0  0
 46 48  1  0  0  0
M  END
> <minimizedAffinity>
-8.58878

> <CNNscore>
0.3001945615

> <CNNaffinity>
7.4156060219

> <CNN_VS>
2.2261245251

> <CNNaffinity_variance>
0.2127979249

$$$$
[H]ON([H])C(=O)C([H])([H])C([H])([H])C([H])([H])C([H])([H])C([H])([H])C([H])([H])C([H])([H])N([H])C(=O)N1C([H])([H])C([H])([H])C([H])([H])C([H])(c2nc([H])c(-c3c([H])c([H])c4nc([H])nc(N([H])c5c([H])c([H])c(F)c([H])c5[H])c4c3[H])n2[H])C1([H])[H]


 48 52  0  0  0  0  0  0  0  0999 V2000
    1.1847  -50.7410  -20.0858 C   0  0  0  0  0  0  0  0  0  0  0  0
    1.1193  -49.4211  -20.4815 C   0  0  0  0  0  0  0  0  0  0  0  0
    1.9721  -48.7207  -19.7130 N   0  0  0  0  0  0  0  0  0  0  0  0
    2.5820  -49.5411  -18.8390 C   0  0  0  0  0  0  0  0  0  0  0  0
    2.0901  -50.7670  -19.0804 N   0  0  0  0  0  0  0  0  0  0  0  0
    2.3236  -51.6643  -18.6016 H   0  0  0  0  0  0  0  0  0  0  0  0
   -0.1472  -53.4406  -23.8593 C   0  0  0  0  0  0  0  0  0  0  0  0
   -0.8558  -54.5010  -24.2798 N   0  0  0  0  0  0  0  0  0  0  0  0
   -1.5792  -55.2909  -23.4746 C   0  0  0  0  0  0  0  0  0  0  0  0
   -1.6358  -55.0550  -22.1583 N   0  0  0  0  0  0  0  0  0  0  0  0
   -0.9632  -54.0245  -21.6568 C   0  0  0  0  0  0  0  0  0  0  0  0
   -1.0132  -53.7703  -20.2937 C   0  0  0  0  0  0  0  0  0  0  0  0
   -0.3061  -52.6955  -19.7997 C   0  0  0  0  0  0  0  0  0  0  0  0
    0.4391  -51.8800  -20.6215 C   0  0  0  0  0  0  0  0  0  0  0  0
    0.4928  -52.1296  -21.9814 C   0  0  0  0  0  0  0  0  0  0  0  0
   -0.2054  -53.1968  -22.4974 C   0  0  0  0  0  0  0  0  0  0  0  0
    0.5631  -52.6257  -24.7501 N   0  0  0  0  0  0  0  0  0  0  0  0
    1.2282  -51.8906  -24.3632 H   0  0  0  0  0  0  0  0  0  0  0  0
   -0.4209  -52.9701  -30.2462 F   0  0  0  0  0  0  0  0  0  0  0  0
   -0.1289  -52.9005  -28.9153 C   0  0  0  0  0  0  0  0  0  0  0  0
    1.0737  -53.3147  -28.4082 C   0  0  0  0  0  0  0  0  0  0  0  0
    1.3409  -53.2270  -27.0310 C   0  0  0  0  0  0  0  0  0  0  0  0
    0.4299  -52.7353  -26.1518 C   0  0  0  0  0  0  0  0  0  0  0  0
   -0.7987  -52.3151  -26.6966 C   0  0  0  0  0  0  0  0  0  0  0  0
   -1.0723  -52.3957  -28.0443 C   0  0  0  0  0  0  0  0  0  0  0  0
    3.6018  -49.1734  -17.7936 C   0  0  0  0  0  0  0  0  0  0  0  0
    3.1610  -49.5805  -16.4273 C   0  0  0  0  0  0  0  0  0  0  0  0
    2.2287  -48.6240  -15.7577 C   0  0  0  0  0  0  0  0  0  0  0  0
    2.6617  -47.1805  -15.8340 C   0  0  0  0  0  0  0  0  0  0  0  0
    3.9231  -47.1701  -16.5810 N   0  0  0  0  0  0  0  0  0  0  0  0
    3.8277  -47.6807  -17.9188 C   0  0  0  0  0  0  0  0  0  0  0  0
    5.1177  -46.6919  -16.0253 C   0  0  0  0  0  0  0  0  0  0  0  0
    5.0255  -46.2518  -14.8516 O   0  0  0  0  0  0  0  0  0  0  0  0
    6.3227  -46.6949  -16.7004 N   0  0  0  0  0  0  0  0  0  0  0  0
    6.2578  -47.1150  -17.7217 H   0  0  0  0  0  0  0  0  0  0  0  0
    7.6348  -46.2907  -16.3821 C   0  0  0  0  0  0  0  0  0  0  0  0
    8.2392  -45.0773  -16.9266 C   0  0  0  0  0  0  0  0  0  0  0  0
    7.4841  -44.0750  -17.6856 C   0  0  0  0  0  0  0  0  0  0  0  0
    7.1799  -44.4295  -19.1280 C   0  0  0  0  0  0  0  0  0  0  0  0
    8.3429  -45.1408  -19.7952 C   0  0  0  0  0  0  0  0  0  0  0  0
    7.8068  -46.4102  -20.3719 C   0  0  0  0  0  0  0  0  0  0  0  0
    6.3228  -46.4535  -20.4951 C   0  0  0  0  0  0  0  0  0  0  0  0
    5.7893  -47.2859  -21.5762 C   0  0  0  0  0  0  0  0  0  0  0  0
    6.3320  -47.3836  -22.6890 O   0  0  0  0  0  0  0  0  0  0  0  0
    4.5957  -48.0119  -21.3319 N   0  0  0  0  0  0  0  0  0  0  0  0
    4.0309  -48.8110  -22.2796 O   0  0  0  0  0  0  0  0  0  0  0  0
    4.0896  -47.9728  -20.4220 H   0  0  0  0  0  0  0  0  0  0  0  0
    3.4252  -49.4654  -21.8964 H   0  0  0  0  0  0  0  0  0  0  0  0
 19 20  1  0  0  0
 20 21  2  0  0  0
 21 22  1  0  0  0
 22 23  2  0  0  0
 23 17  1  0  0  0
 17  7  1  0  0  0
  7  8  2  0  0  0
  8  9  1  0  0  0
  9 10  2  0  0  0
 10 11  1  0  0  0
 11 12  2  0  0  0
 12 13  1  0  0  0
 13 14  2  0  0  0
 14 15  1  0  0  0
 15 16  2  0  0  0
 14  1  1  0  0  0
  1  2  2  0  0  0
  2  3  1  0  0  0
  3  4  2  0  0  0
  4  5  1  0  0  0
  4 26  1  0  0  0
 26 27  1  0  0  0
 27 28  1  0  0  0
 28 29  1  0  0  0
 29 30  1  0  0  0
 30 31  1  0  0  0
 30 32  1  0  0  0
 32 33  2  0  0  0
 32 34  1  0  0  0
 34 36  1  0  0  0
 36 37  1  0  0  0
 37 38  1  0  0  0
 38 39  1  0  0  0
 39 40  1  0  0  0
 40 41  1  0  0  0
 41 42  1  0  0  0
 42 43  1  0  0  0
 43 44  2  0  0  0
 43 45  1  0  0  0
 45 46  1  0  0  0
 23 24  1  0  0  0
 24 25  2  0  0  0
 25 20  1  0  0  0
 16  7  1  0  0  0
  5  1  1  0  0  0
 31 26  1  0  0  0
 16 11  1  0  0  0
 17 18  1  0  0  0
  5  6  1  0  0  0
 34 35  1  0  0  0
 45 47  1  0  0  0
 46 48  1  0  0  0
M  END
> <minimizedAffinity>
-7.15250

> <CNNscore>
0.2966009676

> <CNNaffinity>
7.2635946274

> <CNN_VS>
2.1543891430

> <CNNaffinity_variance>
0.5719366074

$$$$
[H]ON([H])C(=O)C([H])([H])C([H])([H])C([H])([H])C([H])([H])C([H])([H])C([H])([H])C([H])([H])N([H])C(=O)N1C([H])([H])C([H])([H])C([H])([H])C([H])(c2nc([H])c(-c3c([H])c([H])c4nc([H])nc(N([H])c5c([H])c([H])c(F)c([H])c5[H])c4c3[H])n2[H])C1([H])[H]


 48 52  0  0  0  0  0  0  0  0999 V2000
    1.5670  -50.1299  -20.6642 C   0  0  0  0  0  0  0  0  0  0  0  0
    1.0496  -48.8593  -20.8079 C   0  0  0  0  0  0  0  0  0  0  0  0
    1.9709  -47.9890  -20.3581 N   0  0  0  0  0  0  0  0  0  0  0  0
    3.0596  -48.6531  -19.9310 C   0  0  0  0  0  0  0  0  0  0  0  0
    2.7957  -49.9553  -20.1249 N   0  0  0  0  0  0  0  0  0  0  0  0
    3.4027  -50.7775  -19.9139 H   0  0  0  0  0  0  0  0  0  0  0  0
   -0.4611  -53.0118  -23.9631 C   0  0  0  0  0  0  0  0  0  0  0  0
   -1.0329  -54.2022  -24.2066 N   0  0  0  0  0  0  0  0  0  0  0  0
   -1.2221  -55.1508  -23.2790 C   0  0  0  0  0  0  0  0  0  0  0  0
   -0.8366  -54.9535  -22.0126 N   0  0  0  0  0  0  0  0  0  0  0  0
   -0.2611  -53.8017  -21.6841 C   0  0  0  0  0  0  0  0  0  0  0  0
    0.1439  -53.5856  -20.3747 C   0  0  0  0  0  0  0  0  0  0  0  0
    0.7385  -52.3825  -20.0611 C   0  0  0  0  0  0  0  0  0  0  0  0
    0.9358  -51.4039  -21.0092 C   0  0  0  0  0  0  0  0  0  0  0  0
    0.5344  -51.6146  -22.3165 C   0  0  0  0  0  0  0  0  0  0  0  0
   -0.0618  -52.8078  -22.6530 C   0  0  0  0  0  0  0  0  0  0  0  0
   -0.3207  -52.0409  -24.9630 N   0  0  0  0  0  0  0  0  0  0  0  0
   -0.1620  -51.0267  -24.6827 H   0  0  0  0  0  0  0  0  0  0  0  0
   -1.0460  -53.2666  -30.3727 F   0  0  0  0  0  0  0  0  0  0  0  0
   -0.8150  -52.9728  -29.0606 C   0  0  0  0  0  0  0  0  0  0  0  0
    0.4278  -53.0787  -28.4957 C   0  0  0  0  0  0  0  0  0  0  0  0
    0.6295  -52.7662  -27.1402 C   0  0  0  0  0  0  0  0  0  0  0  0
   -0.3860  -52.3519  -26.3390 C   0  0  0  0  0  0  0  0  0  0  0  0
   -1.6543  -52.2501  -26.9423 C   0  0  0  0  0  0  0  0  0  0  0  0
   -1.8646  -52.5531  -28.2695 C   0  0  0  0  0  0  0  0  0  0  0  0
    4.3189  -48.0703  -19.3457 C   0  0  0  0  0  0  0  0  0  0  0  0
    4.2834  -48.0692  -17.8539 C   0  0  0  0  0  0  0  0  0  0  0  0
    3.5484  -46.9199  -17.2445 C   0  0  0  0  0  0  0  0  0  0  0  0
    3.9066  -45.5755  -17.8287 C   0  0  0  0  0  0  0  0  0  0  0  0
    4.9117  -45.8334  -18.8643 N   0  0  0  0  0  0  0  0  0  0  0  0
    4.4634  -46.6810  -19.9320 C   0  0  0  0  0  0  0  0  0  0  0  0
    6.2008  -45.2860  -18.8085 C   0  0  0  0  0  0  0  0  0  0  0  0
    6.4253  -44.5407  -17.8216 O   0  0  0  0  0  0  0  0  0  0  0  0
    7.1720  -45.5344  -19.7588 N   0  0  0  0  0  0  0  0  0  0  0  0
    6.8381  -46.2110  -20.5677 H   0  0  0  0  0  0  0  0  0  0  0  0
    8.5102  -45.1283  -19.9336 C   0  0  0  0  0  0  0  0  0  0  0  0
    9.3770  -44.7689  -18.8140 C   0  0  0  0  0  0  0  0  0  0  0  0
   10.0754  -45.7600  -17.9888 C   0  0  0  0  0  0  0  0  0  0  0  0
   11.4875  -46.1030  -18.4212 C   0  0  0  0  0  0  0  0  0  0  0  0
   11.8189  -47.5629  -18.1713 C   0  0  0  0  0  0  0  0  0  0  0  0
   10.5212  -48.2971  -18.0813 C   0  0  0  0  0  0  0  0  0  0  0  0
   10.2524  -49.2171  -19.2218 C   0  0  0  0  0  0  0  0  0  0  0  0
    9.4727  -48.6600  -20.3299 C   0  0  0  0  0  0  0  0  0  0  0  0
    9.9873  -48.0632  -21.2897 O   0  0  0  0  0  0  0  0  0  0  0  0
    8.0633  -48.8143  -20.2973 N   0  0  0  0  0  0  0  0  0  0  0  0
    7.2617  -48.3290  -21.2861 O   0  0  0  0  0  0  0  0  0  0  0  0
    7.5684  -49.3023  -19.5210 H   0  0  0  0  0  0  0  0  0  0  0  0
    6.3920  -48.7598  -21.3000 H   0  0  0  0  0  0  0  0  0  0  0  0
 19 20  1  0  0  0
 20 21  2  0  0  0
 21 22  1  0  0  0
 22 23  2  0  0  0
 23 17  1  0  0  0
 17  7  1  0  0  0
  7  8  2  0  0  0
  8  9  1  0  0  0
  9 10  2  0  0  0
 10 11  1  0  0  0
 11 12  2  0  0  0
 12 13  1  0  0  0
 13 14  2  0  0  0
 14 15  1  0  0  0
 15 16  2  0  0  0
 14  1  1  0  0  0
  1  2  2  0  0  0
  2  3  1  0  0  0
  3  4  2  0  0  0
  4  5  1  0  0  0
  4 26  1  0  0  0
 26 27  1  0  0  0
 27 28  1  0  0  0
 28 29  1  0  0  0
 29 30  1  0  0  0
 30 31  1  0  0  0
 30 32  1  0  0  0
 32 33  2  0  0  0
 32 34  1  0  0  0
 34 36  1  0  0  0
 36 37  1  0  0  0
 37 38  1  0  0  0
 38 39  1  0  0  0
 39 40  1  0  0  0
 40 41  1  0  0  0
 41 42  1  0  0  0
 42 43  1  0  0  0
 43 44  2  0  0  0
 43 45  1  0  0  0
 45 46  1  0  0  0
 23 24  1  0  0  0
 24 25  2  0  0  0
 25 20  1  0  0  0
 16  7  1  0  0  0
  5  1  1  0  0  0
 31 26  1  0  0  0
 16 11  1  0  0  0
 17 18  1  0  0  0
  5  6  1  0  0  0
 34 35  1  0  0  0
 45 47  1  0  0  0
 46 48  1  0  0  0
M  END
> <minimizedAffinity>
-7.40101

> <CNNscore>
0.2534570098

> <CNNaffinity>
6.9518671036

> <CNN_VS>
1.7619994879

> <CNNaffinity_variance>
0.4860613346

$$$$
[H]OC([H])([H])c1c([H])c([H])c([H])c(N([H])c2nc([H])nc3c([H])c(OC([H])([H])C([H])([H])C([H])([H])N4C([H])([H])C([H])([H])C([H])([H])C4([H])[H])c([H])c([H])c23)c1[H]


 30 33  0  0  0  0  0  0  0  0999 V2000
   -0.5747  -53.0558  -23.7905 C   0  0  0  0  0  0  0  0  0  0  0  0
   -1.0305  -54.2941  -24.0408 N   0  0  0  0  0  0  0  0  0  0  0  0
   -1.3081  -55.2045  -23.1020 C   0  0  0  0  0  0  0  0  0  0  0  0
   -1.1266  -54.8804  -21.8192 N   0  0  0  0  0  0  0  0  0  0  0  0
   -0.6703  -53.6612  -21.4214 C   0  0  0  0  0  0  0  0  0  0  0  0
   -0.5039  -53.3850  -20.0961 C   0  0  0  0  0  0  0  0  0  0  0  0
   -0.0375  -52.1402  -19.6821 C   0  0  0  0  0  0  0  0  0  0  0  0
    0.2330  -51.2453  -20.6840 C   0  0  0  0  0  0  0  0  0  0  0  0
    0.0641  -51.5222  -22.0367 C   0  0  0  0  0  0  0  0  0  0  0  0
   -0.3930  -52.7401  -22.4418 C   0  0  0  0  0  0  0  0  0  0  0  0
   -0.2613  -52.1298  -24.8004 N   0  0  0  0  0  0  0  0  0  0  0  0
    0.0228  -51.1628  -24.5621 H   0  0  0  0  0  0  0  0  0  0  0  0
    0.5844  -53.2598  -28.2795 C   0  0  0  0  0  0  0  0  0  0  0  0
   -0.6507  -53.0526  -28.8411 C   0  0  0  0  0  0  0  0  0  0  0  0
   -1.7161  -52.5551  -28.1124 C   0  0  0  0  0  0  0  0  0  0  0  0
   -1.5678  -52.2481  -26.7845 C   0  0  0  0  0  0  0  0  0  0  0  0
   -0.3159  -52.4477  -26.1775 C   0  0  0  0  0  0  0  0  0  0  0  0
    0.7348  -52.9467  -26.9236 C   0  0  0  0  0  0  0  0  0  0  0  0
    2.9240  -53.6759  -28.2938 O   0  0  0  0  0  0  0  0  0  0  0  0
    1.7463  -53.7842  -29.0092 C   0  0  0  0  0  0  0  0  0  0  0  0
    3.0940  -52.7329  -28.1167 H   0  0  0  0  0  0  0  0  0  0  0  0
    0.1229  -51.8968  -18.3288 O   0  0  0  0  0  0  0  0  0  0  0  0
    0.0645  -50.6707  -17.7318 C   0  0  0  0  0  0  0  0  0  0  0  0
    0.0924  -50.7729  -16.2387 C   0  0  0  0  0  0  0  0  0  0  0  0
    0.1153  -49.3556  -15.6984 C   0  0  0  0  0  0  0  0  0  0  0  0
   -0.5763  -49.2140  -14.4518 N   0  0  0  0  0  0  0  0  0  0  0  0
   -1.9424  -49.6227  -14.4941 C   0  0  0  0  0  0  0  0  0  0  0  0
   -2.6765  -48.4766  -15.1667 C   0  0  0  0  0  0  0  0  0  0  0  0
   -1.7593  -47.2969  -14.9409 C   0  0  0  0  0  0  0  0  0  0  0  0
   -0.6230  -47.8127  -14.1032 C   0  0  0  0  0  0  0  0  0  0  0  0
 19 20  1  0  0  0
 20 13  1  0  0  0
 13 14  2  0  0  0
 14 15  1  0  0  0
 15 16  2  0  0  0
 16 17  1  0  0  0
 17 11  1  0  0  0
 11  1  1  0  0  0
  1  2  2  0  0  0
  2  3  1  0  0  0
  3  4  2  0  0  0
  4  5  1  0  0  0
  5  6  2  0  0  0
  6  7  1  0  0  0
  7 22  1  0  0  0
 22 23  1  0  0  0
 23 24  1  0  0  0
 24 25  1  0  0  0
 25 26  1  0  0  0
 26 27  1  0  0  0
 27 28  1  0  0  0
 28 29  1  0  0  0
 29 30  1  0  0  0
  7  8  2  0  0  0
  8  9  1  0  0  0
  9 10  2  0  0  0
 17 18  2  0  0  0
 18 13  1  0  0  0
 10  1  1  0  0  0
 10  5  1  0  0  0
 30 26  1  0  0  0
 19 21  1  0  0  0
 11 12  1  0  0  0
M  END
> <minimizedAffinity>
-7.68274

> <CNNscore>
0.9517295957

> <CNNaffinity>
6.9461851120

> <CNN_VS>
6.6108899117

> <CNNaffinity_variance>
0.0632403046

$$$$
[H]OC([H])([H])c1c([H])c([H])c([H])c(N([H])c2nc([H])nc3c([H])c(OC([H])([H])C([H])([H])C([H])([H])N4C([H])([H])C([H])([H])C([H])([H])C4([H])[H])c([H])c([H])c23)c1[H]


 30 33  0  0  0  0  0  0  0  0999 V2000
   -0.2894  -52.9171  -23.2411 C   0  0  0  0  0  0  0  0  0  0  0  0
   -0.8192  -54.1339  -23.4470 N   0  0  0  0  0  0  0  0  0  0  0  0
   -1.2500  -54.9476  -22.4776 C   0  0  0  0  0  0  0  0  0  0  0  0
   -1.1559  -54.5415  -21.2089 N   0  0  0  0  0  0  0  0  0  0  0  0
   -0.6399  -53.3325  -20.8552 C   0  0  0  0  0  0  0  0  0  0  0  0
   -0.5685  -52.9696  -19.5424 C   0  0  0  0  0  0  0  0  0  0  0  0
   -0.0418  -51.7347  -19.1734 C   0  0  0  0  0  0  0  0  0  0  0  0
    0.3861  -50.9406  -20.2051 C   0  0  0  0  0  0  0  0  0  0  0  0
    0.3145  -51.3061  -21.5453 C   0  0  0  0  0  0  0  0  0  0  0  0
   -0.2016  -52.5143  -21.9064 C   0  0  0  0  0  0  0  0  0  0  0  0
    0.1843  -52.0959  -24.2789 N   0  0  0  0  0  0  0  0  0  0  0  0
    0.7430  -51.2491  -24.0706 H   0  0  0  0  0  0  0  0  0  0  0  0
    0.4821  -53.1975  -27.8557 C   0  0  0  0  0  0  0  0  0  0  0  0
   -0.7811  -52.8432  -28.2589 C   0  0  0  0  0  0  0  0  0  0  0  0
   -1.6918  -52.2594  -27.3965 C   0  0  0  0  0  0  0  0  0  0  0  0
   -1.3541  -52.0123  -26.0911 C   0  0  0  0  0  0  0  0  0  0  0  0
   -0.0680  -52.3622  -25.6449 C   0  0  0  0  0  0  0  0  0  0  0  0
    0.8260  -52.9454  -26.5226 C   0  0  0  0  0  0  0  0  0  0  0  0
    2.7817  -53.5847  -28.3133 O   0  0  0  0  0  0  0  0  0  0  0  0
    1.4850  -53.8181  -28.7313 C   0  0  0  0  0  0  0  0  0  0  0  0
    2.9427  -52.6237  -28.3231 H   0  0  0  0  0  0  0  0  0  0  0  0
    0.0187  -51.4019  -17.8311 O   0  0  0  0  0  0  0  0  0  0  0  0
   -0.7706  -51.9257  -16.8484 C   0  0  0  0  0  0  0  0  0  0  0  0
   -0.6147  -51.1911  -15.5536 C   0  0  0  0  0  0  0  0  0  0  0  0
   -1.8972  -50.4126  -15.3292 C   0  0  0  0  0  0  0  0  0  0  0  0
   -2.9852  -51.2309  -14.8831 N   0  0  0  0  0  0  0  0  0  0  0  0
   -4.1917  -51.0493  -15.6223 C   0  0  0  0  0  0  0  0  0  0  0  0
   -4.7896  -49.7589  -15.0910 C   0  0  0  0  0  0  0  0  0  0  0  0
   -4.1607  -49.6223  -13.7235 C   0  0  0  0  0  0  0  0  0  0  0  0
   -3.3240  -50.8557  -13.5296 C   0  0  0  0  0  0  0  0  0  0  0  0
 19 20  1  0  0  0
 20 13  1  0  0  0
 13 14  2  0  0  0
 14 15  1  0  0  0
 15 16  2  0  0  0
 16 17  1  0  0  0
 17 11  1  0  0  0
 11  1  1  0  0  0
  1  2  2  0  0  0
  2  3  1  0  0  0
  3  4  2  0  0  0
  4  5  1  0  0  0
  5  6  2  0  0  0
  6  7  1  0  0  0
  7 22  1  0  0  0
 22 23  1  0  0  0
 23 24  1  0  0  0
 24 25  1  0  0  0
 25 26  1  0  0  0
 26 27  1  0  0  0
 27 28  1  0  0  0
 28 29  1  0  0  0
 29 30  1  0  0  0
  7  8  2  0  0  0
  8  9  1  0  0  0
  9 10  2  0  0  0
 17 18  2  0  0  0
 18 13  1  0  0  0
 10  1  1  0  0  0
 10  5  1  0  0  0
 30 26  1  0  0  0
 19 21  1  0  0  0
 11 12  1  0  0  0
M  END
> <minimizedAffinity>
-8.10147

> <CNNscore>
0.9170232415

> <CNNaffinity>
6.9121384621

> <CNN_VS>
6.3385915756

> <CNNaffinity_variance>
0.0748191476

$$$$
[H]OC([H])([H])c1c([H])c([H])c([H])c(N([H])c2nc([H])nc3c([H])c(OC([H])([H])C([H])([H])C([H])([H])N4C([H])([H])C([H])([H])C([H])([H])C4([H])[H])c([H])c([H])c23)c1[H]


 30 33  0  0  0  0  0  0  0  0999 V2000
   -0.3665  -52.8863  -23.3309 C   0  0  0  0  0  0  0  0  0  0  0  0
   -0.8614  -54.1199  -23.5231 N   0  0  0  0  0  0  0  0  0  0  0  0
   -1.1915  -54.9663  -22.5423 C   0  0  0  0  0  0  0  0  0  0  0  0
   -1.0253  -54.5777  -21.2754 N   0  0  0  0  0  0  0  0  0  0  0  0
   -0.5336  -53.3549  -20.9349 C   0  0  0  0  0  0  0  0  0  0  0  0
   -0.3853  -53.0111  -19.6234 C   0  0  0  0  0  0  0  0  0  0  0  0
    0.1170  -51.7622  -19.2678 C   0  0  0  0  0  0  0  0  0  0  0  0
    0.4407  -50.9346  -20.3110 C   0  0  0  0  0  0  0  0  0  0  0  0
    0.2903  -51.2805  -21.6499 C   0  0  0  0  0  0  0  0  0  0  0  0
   -0.2019  -52.5024  -21.9979 C   0  0  0  0  0  0  0  0  0  0  0  0
    0.0012  -52.0296  -24.3828 N   0  0  0  0  0  0  0  0  0  0  0  0
    0.4168  -51.1011  -24.1885 H   0  0  0  0  0  0  0  0  0  0  0  0
    0.5079  -53.3124  -27.8748 C   0  0  0  0  0  0  0  0  0  0  0  0
   -0.7321  -52.9897  -28.3666 C   0  0  0  0  0  0  0  0  0  0  0  0
   -1.6934  -52.3695  -27.5888 C   0  0  0  0  0  0  0  0  0  0  0  0
   -1.4319  -52.0524  -26.2810 C   0  0  0  0  0  0  0  0  0  0  0  0
   -0.1715  -52.3683  -25.7451 C   0  0  0  0  0  0  0  0  0  0  0  0
    0.7740  -52.9888  -26.5392 C   0  0  0  0  0  0  0  0  0  0  0  0
    2.8289  -53.5150  -28.3428 O   0  0  0  0  0  0  0  0  0  0  0  0
    1.5622  -53.9693  -28.6586 C   0  0  0  0  0  0  0  0  0  0  0  0
    2.8741  -52.5614  -28.5376 H   0  0  0  0  0  0  0  0  0  0  0  0
    0.2577  -51.4494  -17.9267 O   0  0  0  0  0  0  0  0  0  0  0  0
   -0.6153  -51.7959  -16.9364 C   0  0  0  0  0  0  0  0  0  0  0  0
   -0.4505  -50.9399  -15.7196 C   0  0  0  0  0  0  0  0  0  0  0  0
    0.7949  -51.4252  -15.0023 C   0  0  0  0  0  0  0  0  0  0  0  0
    1.8540  -50.4605  -14.9918 N   0  0  0  0  0  0  0  0  0  0  0  0
    3.0025  -50.8484  -15.7438 C   0  0  0  0  0  0  0  0  0  0  0  0
    3.7373  -51.8393  -14.8590 C   0  0  0  0  0  0  0  0  0  0  0  0
    3.2402  -51.5014  -13.4723 C   0  0  0  0  0  0  0  0  0  0  0  0
    2.3347  -50.3133  -13.6373 C   0  0  0  0  0  0  0  0  0  0  0  0
 19 20  1  0  0  0
 20 13  1  0  0  0
 13 14  2  0  0  0
 14 15  1  0  0  0
 15 16  2  0  0  0
 16 17  1  0  0  0
 17 11  1  0  0  0
 11  1  1  0  0  0
  1  2  2  0  0  0
  2  3  1  0  0  0
  3  4  2  0  0  0
  4  5  1  0  0  0
  5  6  2  0  0  0
  6  7  1  0  0  0
  7 22  1  0  0  0
 22 23  1  0  0  0
 23 24  1  0  0  0
 24 25  1  0  0  0
 25 26  1  0  0  0
 26 27  1  0  0  0
 27 28  1  0  0  0
 28 29  1  0  0  0
 29 30  1  0  0  0
  7  8  2  0  0  0
  8  9  1  0  0  0
  9 10  2  0  0  0
 17 18  2  0  0  0
 18 13  1  0  0  0
 10  1  1  0  0  0
 10  5  1  0  0  0
 30 26  1  0  0  0
 19 21  1  0  0  0
 11 12  1  0  0  0
M  END
> <minimizedAffinity>
-7.86300

> <CNNscore>
0.9119055867

> <CNNaffinity>
6.8508820534

> <CNN_VS>
6.2473578453

> <CNNaffinity_variance>
0.0644607395

$$$$
[H]OC([H])([H])c1c([H])c([H])c([H])c(N([H])c2nc([H])nc3c([H])c(OC([H])([H])C([H])([H])C([H])([H])N4C([H])([H])C([H])([H])C([H])([H])C4([H])[H])c([H])c([H])c23)c1[H]


 30 33  0  0  0  0  0  0  0  0999 V2000
   -0.3078  -52.9576  -23.5452 C   0  0  0  0  0  0  0  0  0  0  0  0
   -0.8243  -54.1688  -23.8094 N   0  0  0  0  0  0  0  0  0  0  0  0
   -1.2428  -55.0342  -22.8804 C   0  0  0  0  0  0  0  0  0  0  0  0
   -1.1496  -54.6901  -21.5933 N   0  0  0  0  0  0  0  0  0  0  0  0
   -0.6463  -53.4941  -21.1817 C   0  0  0  0  0  0  0  0  0  0  0  0
   -0.5751  -53.1955  -19.8528 C   0  0  0  0  0  0  0  0  0  0  0  0
   -0.0615  -51.9743  -19.4247 C   0  0  0  0  0  0  0  0  0  0  0  0
    0.3543  -51.1255  -20.4170 C   0  0  0  0  0  0  0  0  0  0  0  0
    0.2828  -51.4253  -21.7734 C   0  0  0  0  0  0  0  0  0  0  0  0
   -0.2206  -52.6201  -22.1924 C   0  0  0  0  0  0  0  0  0  0  0  0
    0.1534  -52.0809  -24.5423 N   0  0  0  0  0  0  0  0  0  0  0  0
    0.6098  -51.1860  -24.2904 H   0  0  0  0  0  0  0  0  0  0  0  0
   -1.2023  -52.6531  -27.9964 C   0  0  0  0  0  0  0  0  0  0  0  0
   -0.0010  -52.8487  -28.6310 C   0  0  0  0  0  0  0  0  0  0  0  0
    1.2045  -52.8032  -27.9540 C   0  0  0  0  0  0  0  0  0  0  0  0
    1.2364  -52.5578  -26.6056 C   0  0  0  0  0  0  0  0  0  0  0  0
    0.0242  -52.3535  -25.9241 C   0  0  0  0  0  0  0  0  0  0  0  0
   -1.1688  -52.4022  -26.6198 C   0  0  0  0  0  0  0  0  0  0  0  0
   -3.5691  -52.6489  -27.7844 O   0  0  0  0  0  0  0  0  0  0  0  0
   -2.5077  -52.6923  -28.6686 C   0  0  0  0  0  0  0  0  0  0  0  0
   -3.5195  -53.4281  -27.2014 H   0  0  0  0  0  0  0  0  0  0  0  0
   -0.0007  -51.7074  -18.0677 O   0  0  0  0  0  0  0  0  0  0  0  0
    0.9121  -50.8947  -17.4601 C   0  0  0  0  0  0  0  0  0  0  0  0
    0.2752  -49.6680  -16.8857 C   0  0  0  0  0  0  0  0  0  0  0  0
    1.3865  -48.8390  -16.2701 C   0  0  0  0  0  0  0  0  0  0  0  0
    2.6783  -49.4468  -16.3892 N   0  0  0  0  0  0  0  0  0  0  0  0
    3.3115  -49.7184  -15.1401 C   0  0  0  0  0  0  0  0  0  0  0  0
    3.8541  -48.3796  -14.6733 C   0  0  0  0  0  0  0  0  0  0  0  0
    3.9659  -47.5849  -15.9540 C   0  0  0  0  0  0  0  0  0  0  0  0
    3.5661  -48.5235  -17.0577 C   0  0  0  0  0  0  0  0  0  0  0  0
 19 20  1  0  0  0
 20 13  1  0  0  0
 13 14  2  0  0  0
 14 15  1  0  0  0
 15 16  2  0  0  0
 16 17  1  0  0  0
 17 11  1  0  0  0
 11  1  1  0  0  0
  1  2  2  0  0  0
  2  3  1  0  0  0
  3  4  2  0  0  0
  4  5  1  0  0  0
  5  6  2  0  0  0
  6  7  1  0  0  0
  7 22  1  0  0  0
 22 23  1  0  0  0
 23 24  1  0  0  0
 24 25  1  0  0  0
 25 26  1  0  0  0
 26 27  1  0  0  0
 27 28  1  0  0  0
 28 29  1  0  0  0
 29 30  1  0  0  0
  7  8  2  0  0  0
  8  9  1  0  0  0
  9 10  2  0  0  0
 17 18  2  0  0  0
 18 13  1  0  0  0
 10  1  1  0  0  0
 10  5  1  0  0  0
 30 26  1  0  0  0
 19 21  1  0  0  0
 11 12  1  0  0  0
M  END
> <minimizedAffinity>
-8.16135

> <CNNscore>
0.8601866364

> <CNNaffinity>
6.7061920166

> <CNN_VS>
5.7685766220

> <CNNaffinity_variance>
0.0286683533

$$$$
[H]OC([H])([H])c1c([H])c([H])c([H])c(N([H])c2nc([H])nc3c([H])c(OC([H])([H])C([H])([H])C([H])([H])N4C([H])([H])C([H])([H])C([H])([H])C4([H])[H])c([H])c([H])c23)c1[H]


 30 33  0  0  0  0  0  0  0  0999 V2000
   -0.4477  -52.7448  -23.2607 C   0  0  0  0  0  0  0  0  0  0  0  0
   -0.8607  -53.9991  -23.5052 N   0  0  0  0  0  0  0  0  0  0  0  0
   -1.0991  -54.9166  -22.5626 C   0  0  0  0  0  0  0  0  0  0  0  0
   -0.9202  -54.5833  -21.2817 N   0  0  0  0  0  0  0  0  0  0  0  0
   -0.5050  -53.3476  -20.8897 C   0  0  0  0  0  0  0  0  0  0  0  0
   -0.3393  -53.0625  -19.5662 C   0  0  0  0  0  0  0  0  0  0  0  0
    0.0852  -51.8009  -19.1581 C   0  0  0  0  0  0  0  0  0  0  0  0
    0.3166  -50.8992  -20.1638 C   0  0  0  0  0  0  0  0  0  0  0  0
    0.1482  -51.1852  -21.5147 C   0  0  0  0  0  0  0  0  0  0  0  0
   -0.2680  -52.4196  -21.9140 C   0  0  0  0  0  0  0  0  0  0  0  0
   -0.1747  -51.8105  -24.2747 N   0  0  0  0  0  0  0  0  0  0  0  0
   -0.0722  -50.8040  -24.0534 H   0  0  0  0  0  0  0  0  0  0  0  0
    1.2098  -52.8864  -27.5946 C   0  0  0  0  0  0  0  0  0  0  0  0
    0.0248  -52.9026  -28.2870 C   0  0  0  0  0  0  0  0  0  0  0  0
   -1.1788  -52.5669  -27.6932 C   0  0  0  0  0  0  0  0  0  0  0  0
   -1.2250  -52.2010  -26.3729 C   0  0  0  0  0  0  0  0  0  0  0  0
   -0.0295  -52.1732  -25.6341 C   0  0  0  0  0  0  0  0  0  0  0  0
    1.1616  -52.5132  -26.2465 C   0  0  0  0  0  0  0  0  0  0  0  0
    2.4498  -54.3254  -29.0224 O   0  0  0  0  0  0  0  0  0  0  0  0
    2.5124  -53.2326  -28.1784 C   0  0  0  0  0  0  0  0  0  0  0  0
    2.1475  -55.0968  -28.5096 H   0  0  0  0  0  0  0  0  0  0  0  0
    0.2464  -51.5487  -17.8065 O   0  0  0  0  0  0  0  0  0  0  0  0
    0.3537  -50.3123  -17.2384 C   0  0  0  0  0  0  0  0  0  0  0  0
    1.6358  -50.1525  -16.4828 C   0  0  0  0  0  0  0  0  0  0  0  0
    2.7637  -50.3726  -17.4730 C   0  0  0  0  0  0  0  0  0  0  0  0
    3.6418  -49.2467  -17.5900 N   0  0  0  0  0  0  0  0  0  0  0  0
    2.9796  -48.0212  -17.8978 C   0  0  0  0  0  0  0  0  0  0  0  0
    2.6841  -48.0951  -19.3851 C   0  0  0  0  0  0  0  0  0  0  0  0
    3.6937  -49.1001  -19.8900 C   0  0  0  0  0  0  0  0  0  0  0  0
    4.5370  -49.4696  -18.7020 C   0  0  0  0  0  0  0  0  0  0  0  0
 19 20  1  0  0  0
 20 13  1  0  0  0
 13 14  2  0  0  0
 14 15  1  0  0  0
 15 16  2  0  0  0
 16 17  1  0  0  0
 17 11  1  0  0  0
 11  1  1  0  0  0
  1  2  2  0  0  0
  2  3  1  0  0  0
  3  4  2  0  0  0
  4  5  1  0  0  0
  5  6  2  0  0  0
  6  7  1  0  0  0
  7 22  1  0  0  0
 22 23  1  0  0  0
 23 24  1  0  0  0
 24 25  1  0  0  0
 25 26  1  0  0  0
 26 27  1  0  0  0
 27 28  1  0  0  0
 28 29  1  0  0  0
 29 30  1  0  0  0
  7  8  2  0  0  0
  8  9  1  0  0  0
  9 10  2  0  0  0
 17 18  2  0  0  0
 18 13  1  0  0  0
 10  1  1  0  0  0
 10  5  1  0  0  0
 30 26  1  0  0  0
 19 21  1  0  0  0
 11 12  1  0  0  0
M  END
> <minimizedAffinity>
-7.54801

> <CNNscore>
0.8428153992

> <CNNaffinity>
6.8616852760

> <CNN_VS>
5.7831339836

> <CNNaffinity_variance>
0.0342635512

$$$$
[H]OC([H])([H])c1c([H])c([H])c([H])c(N([H])c2nc([H])nc3c([H])c(OC([H])([H])C([H])([H])C([H])([H])N4C([H])([H])C([H])([H])C([H])([H])C4([H])[H])c([H])c([H])c23)c1[H]


 30 33  0  0  0  0  0  0  0  0999 V2000
   -0.3105  -52.9023  -23.4460 C   0  0  0  0  0  0  0  0  0  0  0  0
   -0.8228  -54.1238  -23.6676 N   0  0  0  0  0  0  0  0  0  0  0  0
   -1.2333  -54.9597  -22.7084 C   0  0  0  0  0  0  0  0  0  0  0  0
   -1.1359  -54.5727  -21.4340 N   0  0  0  0  0  0  0  0  0  0  0  0
   -0.6362  -53.3615  -21.0646 C   0  0  0  0  0  0  0  0  0  0  0  0
   -0.5604  -53.0187  -19.7466 C   0  0  0  0  0  0  0  0  0  0  0  0
   -0.0503  -51.7817  -19.3616 C   0  0  0  0  0  0  0  0  0  0  0  0
    0.3572  -50.9645  -20.3834 C   0  0  0  0  0  0  0  0  0  0  0  0
    0.2810  -51.3095  -21.7287 C   0  0  0  0  0  0  0  0  0  0  0  0
   -0.2188  -52.5197  -22.1056 C   0  0  0  0  0  0  0  0  0  0  0  0
    0.1422  -52.0571  -24.4738 N   0  0  0  0  0  0  0  0  0  0  0  0
    0.5940  -51.1515  -24.2538 H   0  0  0  0  0  0  0  0  0  0  0  0
   -1.2022  -52.6393  -27.9306 C   0  0  0  0  0  0  0  0  0  0  0  0
   -0.0171  -52.9896  -28.5279 C   0  0  0  0  0  0  0  0  0  0  0  0
    1.1736  -53.0410  -27.8255 C   0  0  0  0  0  0  0  0  0  0  0  0
    1.2063  -52.7394  -26.4887 C   0  0  0  0  0  0  0  0  0  0  0  0
    0.0104  -52.3771  -25.8452 C   0  0  0  0  0  0  0  0  0  0  0  0
   -1.1678  -52.3309  -26.5658 C   0  0  0  0  0  0  0  0  0  0  0  0
   -3.5713  -52.7604  -27.7888 O   0  0  0  0  0  0  0  0  0  0  0  0
   -2.4916  -52.5707  -28.6308 C   0  0  0  0  0  0  0  0  0  0  0  0
   -3.5034  -53.6478  -27.3922 H   0  0  0  0  0  0  0  0  0  0  0  0
    0.0153  -51.4697  -18.0145 O   0  0  0  0  0  0  0  0  0  0  0  0
   -0.7328  -52.0476  -17.0299 C   0  0  0  0  0  0  0  0  0  0  0  0
   -1.2654  -51.0356  -16.0641 C   0  0  0  0  0  0  0  0  0  0  0  0
   -2.3738  -51.7123  -15.2801 C   0  0  0  0  0  0  0  0  0  0  0  0
   -3.6854  -51.3064  -15.6891 N   0  0  0  0  0  0  0  0  0  0  0  0
   -4.5722  -51.0263  -14.6074 C   0  0  0  0  0  0  0  0  0  0  0  0
   -5.0217  -52.3860  -14.1034 C   0  0  0  0  0  0  0  0  0  0  0  0
   -4.7893  -53.2907  -15.2916 C   0  0  0  0  0  0  0  0  0  0  0  0
   -4.3085  -52.3983  -16.4012 C   0  0  0  0  0  0  0  0  0  0  0  0
 19 20  1  0  0  0
 20 13  1  0  0  0
 13 14  2  0  0  0
 14 15  1  0  0  0
 15 16  2  0  0  0
 16 17  1  0  0  0
 17 11  1  0  0  0
 11  1  1  0  0  0
  1  2  2  0  0  0
  2  3  1  0  0  0
  3  4  2  0  0  0
  4  5  1  0  0  0
  5  6  2  0  0  0
  6  7  1  0  0  0
  7 22  1  0  0  0
 22 23  1  0  0  0
 23 24  1  0  0  0
 24 25  1  0  0  0
 25 26  1  0  0  0
 26 27  1  0  0  0
 27 28  1  0  0  0
 28 29  1  0  0  0
 29 30  1  0  0  0
  7  8  2  0  0  0
  8  9  1  0  0  0
  9 10  2  0  0  0
 17 18  2  0  0  0
 18 13  1  0  0  0
 10  1  1  0  0  0
 10  5  1  0  0  0
 30 26  1  0  0  0
 19 21  1  0  0  0
 11 12  1  0  0  0
M  END
> <minimizedAffinity>
-8.84523

> <CNNscore>
0.8414497375

> <CNNaffinity>
6.7573561668

> <CNN_VS>
5.6859755516

> <CNNaffinity_variance>
0.0048146010

$$$$
[H]OC([H])([H])c1c([H])c([H])c([H])c(N([H])c2nc([H])nc3c([H])c(OC([H])([H])C([H])([H])C([H])([H])N4C([H])([H])C([H])([H])C([H])([H])C4([H])[H])c([H])c([H])c23)c1[H]


 30 33  0  0  0  0  0  0  0  0999 V2000
   -0.3863  -53.1524  -23.7374 C   0  0  0  0  0  0  0  0  0  0  0  0
   -0.9158  -54.3470  -24.0472 N   0  0  0  0  0  0  0  0  0  0  0  0
   -1.3720  -55.2296  -23.1526 C   0  0  0  0  0  0  0  0  0  0  0  0
   -1.3059  -54.9215  -21.8548 N   0  0  0  0  0  0  0  0  0  0  0  0
   -0.7937  -53.7457  -21.3986 C   0  0  0  0  0  0  0  0  0  0  0  0
   -0.7513  -53.4838  -20.0607 C   0  0  0  0  0  0  0  0  0  0  0  0
   -0.2287  -52.2834  -19.5870 C   0  0  0  0  0  0  0  0  0  0  0  0
    0.2260  -51.4157  -20.5453 C   0  0  0  0  0  0  0  0  0  0  0  0
    0.1841  -51.6781  -21.9106 C   0  0  0  0  0  0  0  0  0  0  0  0
   -0.3280  -52.8525  -22.3743 C   0  0  0  0  0  0  0  0  0  0  0  0
    0.1144  -52.2574  -24.6986 N   0  0  0  0  0  0  0  0  0  0  0  0
    0.6065  -51.3927  -24.4111 H   0  0  0  0  0  0  0  0  0  0  0  0
   -1.2553  -52.6720  -28.1697 C   0  0  0  0  0  0  0  0  0  0  0  0
   -0.0575  -52.8511  -28.8155 C   0  0  0  0  0  0  0  0  0  0  0  0
    1.1502  -52.8447  -28.1408 C   0  0  0  0  0  0  0  0  0  0  0  0
    1.1877  -52.6566  -26.7834 C   0  0  0  0  0  0  0  0  0  0  0  0
   -0.0208  -52.4705  -26.0903 C   0  0  0  0  0  0  0  0  0  0  0  0
   -1.2160  -52.4794  -26.7839 C   0  0  0  0  0  0  0  0  0  0  0  0
   -3.6215  -52.6714  -27.9505 O   0  0  0  0  0  0  0  0  0  0  0  0
   -2.5627  -52.6714  -28.8391 C   0  0  0  0  0  0  0  0  0  0  0  0
   -3.5728  -53.4804  -27.4097 H   0  0  0  0  0  0  0  0  0  0  0  0
   -0.1981  -52.0538  -18.2222 O   0  0  0  0  0  0  0  0  0  0  0  0
    0.1519  -50.8779  -17.6242 C   0  0  0  0  0  0  0  0  0  0  0  0
   -0.6684  -50.6050  -16.4023 C   0  0  0  0  0  0  0  0  0  0  0  0
   -0.3398  -49.1933  -15.9547 C   0  0  0  0  0  0  0  0  0  0  0  0
   -1.4993  -48.4212  -15.6206 N   0  0  0  0  0  0  0  0  0  0  0  0
   -1.2106  -47.2018  -14.9390 C   0  0  0  0  0  0  0  0  0  0  0  0
   -0.9237  -47.6096  -13.5050 C   0  0  0  0  0  0  0  0  0  0  0  0
   -1.6172  -48.9466  -13.3792 C   0  0  0  0  0  0  0  0  0  0  0  0
   -2.3093  -49.1772  -14.6932 C   0  0  0  0  0  0  0  0  0  0  0  0
 19 20  1  0  0  0
 20 13  1  0  0  0
 13 14  2  0  0  0
 14 15  1  0  0  0
 15 16  2  0  0  0
 16 17  1  0  0  0
 17 11  1  0  0  0
 11  1  1  0  0  0
  1  2  2  0  0  0
  2  3  1  0  0  0
  3  4  2  0  0  0
  4  5  1  0  0  0
  5  6  2  0  0  0
  6  7  1  0  0  0
  7 22  1  0  0  0
 22 23  1  0  0  0
 23 24  1  0  0  0
 24 25  1  0  0  0
 25 26  1  0  0  0
 26 27  1  0  0  0
 27 28  1  0  0  0
 28 29  1  0  0  0
 29 30  1  0  0  0
  7  8  2  0  0  0
  8  9  1  0  0  0
  9 10  2  0  0  0
 17 18  2  0  0  0
 18 13  1  0  0  0
 10  1  1  0  0  0
 10  5  1  0  0  0
 30 26  1  0  0  0
 19 21  1  0  0  0
 11 12  1  0  0  0
M  END
> <minimizedAffinity>
-8.26166

> <CNNscore>
0.8317942619

> <CNNaffinity>
6.6299467087

> <CNN_VS>
5.5147514343

> <CNNaffinity_variance>
0.0328397639

$$$$
[H]OC([H])([H])c1c([H])c([H])c([H])c(N([H])c2nc([H])nc3c([H])c(OC([H])([H])C([H])([H])C([H])([H])N4C([H])([H])C([H])([H])C([H])([H])C4([H])[H])c([H])c([H])c23)c1[H]


 30 33  0  0  0  0  0  0  0  0999 V2000
   -0.2545  -52.9302  -23.5468 C   0  0  0  0  0  0  0  0  0  0  0  0
   -0.7908  -54.1407  -23.7718 N   0  0  0  0  0  0  0  0  0  0  0  0
   -1.1462  -55.0030  -22.8140 C   0  0  0  0  0  0  0  0  0  0  0  0
   -0.9634  -54.6562  -21.5373 N   0  0  0  0  0  0  0  0  0  0  0  0
   -0.4302  -53.4605  -21.1644 C   0  0  0  0  0  0  0  0  0  0  0  0
   -0.2667  -53.1591  -19.8442 C   0  0  0  0  0  0  0  0  0  0  0  0
    0.2781  -51.9382  -19.4556 C   0  0  0  0  0  0  0  0  0  0  0  0
    0.6262  -51.0926  -20.4763 C   0  0  0  0  0  0  0  0  0  0  0  0
    0.4605  -51.3954  -21.8238 C   0  0  0  0  0  0  0  0  0  0  0  0
   -0.0733  -52.5898  -22.2041 C   0  0  0  0  0  0  0  0  0  0  0  0
    0.1387  -52.0569  -24.5755 N   0  0  0  0  0  0  0  0  0  0  0  0
    0.5596  -51.1363  -24.3563 H   0  0  0  0  0  0  0  0  0  0  0  0
   -1.2644  -52.6398  -28.0088 C   0  0  0  0  0  0  0  0  0  0  0  0
   -0.0842  -52.9558  -28.6342 C   0  0  0  0  0  0  0  0  0  0  0  0
    1.1220  -52.9849  -27.9576 C   0  0  0  0  0  0  0  0  0  0  0  0
    1.1759  -52.6948  -26.6188 C   0  0  0  0  0  0  0  0  0  0  0  0
   -0.0145  -52.3674  -25.9469 C   0  0  0  0  0  0  0  0  0  0  0  0
   -1.2085  -52.3431  -26.6421 C   0  0  0  0  0  0  0  0  0  0  0  0
   -3.6291  -52.7667  -27.8099 O   0  0  0  0  0  0  0  0  0  0  0  0
   -2.5697  -52.5960  -28.6811 C   0  0  0  0  0  0  0  0  0  0  0  0
   -3.5480  -53.6424  -27.3905 H   0  0  0  0  0  0  0  0  0  0  0  0
    0.4331  -51.6683  -18.1067 O   0  0  0  0  0  0  0  0  0  0  0  0
   -0.5825  -51.5025  -17.2100 C   0  0  0  0  0  0  0  0  0  0  0  0
   -0.2817  -50.4247  -16.2160 C   0  0  0  0  0  0  0  0  0  0  0  0
    0.6707  -51.0175  -15.1948 C   0  0  0  0  0  0  0  0  0  0  0  0
    1.7297  -50.1265  -14.8247 N   0  0  0  0  0  0  0  0  0  0  0  0
    2.5987  -49.7760  -15.9004 C   0  0  0  0  0  0  0  0  0  0  0  0
    3.5113  -50.9763  -16.0775 C   0  0  0  0  0  0  0  0  0  0  0  0
    3.4447  -51.6642  -14.7334 C   0  0  0  0  0  0  0  0  0  0  0  0
    2.5821  -50.7911  -13.8659 C   0  0  0  0  0  0  0  0  0  0  0  0
 19 20  1  0  0  0
 20 13  1  0  0  0
 13 14  2  0  0  0
 14 15  1  0  0  0
 15 16  2  0  0  0
 16 17  1  0  0  0
 17 11  1  0  0  0
 11  1  1  0  0  0
  1  2  2  0  0  0
  2  3  1  0  0  0
  3  4  2  0  0  0
  4  5  1  0  0  0
  5  6  2  0  0  0
  6  7  1  0  0  0
  7 22  1  0  0  0
 22 23  1  0  0  0
 23 24  1  0  0  0
 24 25  1  0  0  0
 25 26  1  0  0  0
 26 27  1  0  0  0
 27 28  1  0  0  0
 28 29  1  0  0  0
 29 30  1  0  0  0
  7  8  2  0  0  0
  8  9  1  0  0  0
  9 10  2  0  0  0
 17 18  2  0  0  0
 18 13  1  0  0  0
 10  1  1  0  0  0
 10  5  1  0  0  0
 30 26  1  0  0  0
 19 21  1  0  0  0
 11 12  1  0  0  0
M  END
> <minimizedAffinity>
-8.32741

> <CNNscore>
0.8189753890

> <CNNaffinity>
6.6417722702

> <CNN_VS>
5.4394478798

> <CNNaffinity_variance>
0.0197043084

$$$$
[H]OC([H])([H])c1c([H])c([H])c([H])c(N([H])c2nc([H])nc3c([H])c(OC([H])([H])C([H])([H])C([H])([H])N4C([H])([H])C([H])([H])C([H])([H])C4([H])[H])c([H])c([H])c23)c1[H]


 30 33  0  0  0  0  0  0  0  0999 V2000
   -0.4323  -53.1371  -23.9210 C   0  0  0  0  0  0  0  0  0  0  0  0
   -0.9367  -54.3312  -24.2723 N   0  0  0  0  0  0  0  0  0  0  0  0
   -1.3829  -55.2498  -23.4095 C   0  0  0  0  0  0  0  0  0  0  0  0
   -1.3326  -54.9813  -22.1022 N   0  0  0  0  0  0  0  0  0  0  0  0
   -0.8463  -53.8110  -21.6053 C   0  0  0  0  0  0  0  0  0  0  0  0
   -0.8192  -53.5905  -20.2595 C   0  0  0  0  0  0  0  0  0  0  0  0
   -0.3231  -52.3960  -19.7443 C   0  0  0  0  0  0  0  0  0  0  0  0
    0.1224  -51.4903  -20.6713 C   0  0  0  0  0  0  0  0  0  0  0  0
    0.0959  -51.7105  -22.0445 C   0  0  0  0  0  0  0  0  0  0  0  0
   -0.3902  -52.8791  -22.5488 C   0  0  0  0  0  0  0  0  0  0  0  0
    0.0586  -52.2032  -24.8497 N   0  0  0  0  0  0  0  0  0  0  0  0
   -0.5863  -51.6969  -25.4824 H   0  0  0  0  0  0  0  0  0  0  0  0
    3.3347  -50.4416  -25.3598 C   0  0  0  0  0  0  0  0  0  0  0  0
    4.1548  -51.5206  -25.1426 C   0  0  0  0  0  0  0  0  0  0  0  0
    3.6554  -52.7767  -24.8487 C   0  0  0  0  0  0  0  0  0  0  0  0
    2.3032  -52.9857  -24.7649 C   0  0  0  0  0  0  0  0  0  0  0  0
    1.4343  -51.9025  -24.9823 C   0  0  0  0  0  0  0  0  0  0  0  0
    1.9542  -50.6557  -25.2735 C   0  0  0  0  0  0  0  0  0  0  0  0
    4.9577  -49.0927  -26.4522 O   0  0  0  0  0  0  0  0  0  0  0  0
    3.8143  -49.0897  -25.6756 C   0  0  0  0  0  0  0  0  0  0  0  0
    5.6666  -49.5443  -25.9593 H   0  0  0  0  0  0  0  0  0  0  0  0
   -0.3073  -52.2088  -18.3729 O   0  0  0  0  0  0  0  0  0  0  0  0
   -1.1927  -52.7537  -17.4885 C   0  0  0  0  0  0  0  0  0  0  0  0
   -1.4443  -51.8521  -16.3204 C   0  0  0  0  0  0  0  0  0  0  0  0
   -0.5355  -50.6489  -16.4861 C   0  0  0  0  0  0  0  0  0  0  0  0
    0.4583  -50.5448  -15.4595 N   0  0  0  0  0  0  0  0  0  0  0  0
    0.3343  -49.3804  -14.6447 C   0  0  0  0  0  0  0  0  0  0  0  0
    0.9095  -48.2509  -15.4802 C   0  0  0  0  0  0  0  0  0  0  0  0
    1.8096  -48.9678  -16.4601 C   0  0  0  0  0  0  0  0  0  0  0  0
    1.7568  -50.4212  -16.0810 C   0  0  0  0  0  0  0  0  0  0  0  0
 19 20  1  0  0  0
 20 13  1  0  0  0
 13 14  2  0  0  0
 14 15  1  0  0  0
 15 16  2  0  0  0
 16 17  1  0  0  0
 17 11  1  0  0  0
 11  1  1  0  0  0
  1  2  2  0  0  0
  2  3  1  0  0  0
  3  4  2  0  0  0
  4  5  1  0  0  0
  5  6  2  0  0  0
  6  7  1  0  0  0
  7 22  1  0  0  0
 22 23  1  0  0  0
 23 24  1  0  0  0
 24 25  1  0  0  0
 25 26  1  0  0  0
 26 27  1  0  0  0
 27 28  1  0  0  0
 28 29  1  0  0  0
 29 30  1  0  0  0
  7  8  2  0  0  0
  8  9  1  0  0  0
  9 10  2  0  0  0
 17 18  2  0  0  0
 18 13  1  0  0  0
 10  1  1  0  0  0
 10  5  1  0  0  0
 30 26  1  0  0  0
 19 21  1  0  0  0
 11 12  1  0  0  0
M  END
> <minimizedAffinity>
-6.90672

> <CNNscore>
0.8168497682

> <CNNaffinity>
6.5729446411

> <CNN_VS>
5.3691082001

> <CNNaffinity_variance>
0.0577944405

$$$$
[H]c1nc(N([H])c2c([H])c(C#N)c([H])c(OC([H])([H])[H])c2[H])c2c([H])c(N3C([H])([H])C([H])([H])OC([H])([H])C3([H])[H])c([H])c([H])c2n1


 28 31  0  0  0  0  0  0  0  0999 V2000
   -0.5373  -53.2662  -19.7799 C   0  0  0  0  0  0  0  0  0  0  0  0
   -1.3557  -54.1322  -20.4145 N   0  0  0  0  0  0  0  0  0  0  0  0
   -1.4984  -54.1275  -21.7410 C   0  0  0  0  0  0  0  0  0  0  0  0
   -0.8376  -53.2615  -22.5288 N   0  0  0  0  0  0  0  0  0  0  0  0
   -0.0009  -52.3630  -21.9830 C   0  0  0  0  0  0  0  0  0  0  0  0
    0.6774  -51.4763  -22.7927 C   0  0  0  0  0  0  0  0  0  0  0  0
    1.5195  -50.5813  -22.1904 C   0  0  0  0  0  0  0  0  0  0  0  0
    1.7119  -50.5325  -20.8379 C   0  0  0  0  0  0  0  0  0  0  0  0
    1.0066  -51.4491  -20.0390 C   0  0  0  0  0  0  0  0  0  0  0  0
    0.1462  -52.3712  -20.5909 C   0  0  0  0  0  0  0  0  0  0  0  0
    2.5993  -49.5940  -20.2117 N   0  0  0  0  0  0  0  0  0  0  0  0
    2.3781  -49.1105  -18.8749 C   0  0  0  0  0  0  0  0  0  0  0  0
    3.0583  -47.7583  -18.7611 C   0  0  0  0  0  0  0  0  0  0  0  0
    4.3990  -47.9528  -18.9717 O   0  0  0  0  0  0  0  0  0  0  0  0
    4.7297  -48.3317  -20.2451 C   0  0  0  0  0  0  0  0  0  0  0  0
    3.7234  -49.1559  -20.9694 C   0  0  0  0  0  0  0  0  0  0  0  0
   -0.4196  -53.2601  -18.3936 N   0  0  0  0  0  0  0  0  0  0  0  0
    0.3804  -53.7946  -17.9370 H   0  0  0  0  0  0  0  0  0  0  0  0
   -3.4125  -52.5297  -16.3843 C   0  0  0  0  0  0  0  0  0  0  0  0
   -2.5482  -53.1311  -17.2601 C   0  0  0  0  0  0  0  0  0  0  0  0
   -1.2601  -52.6113  -17.4556 C   0  0  0  0  0  0  0  0  0  0  0  0
   -0.8824  -51.5001  -16.7625 C   0  0  0  0  0  0  0  0  0  0  0  0
   -1.7514  -50.8886  -15.8761 C   0  0  0  0  0  0  0  0  0  0  0  0
   -3.0079  -51.4132  -15.6985 C   0  0  0  0  0  0  0  0  0  0  0  0
   -5.1120  -53.4695  -14.9636 C   0  0  0  0  0  0  0  0  0  0  0  0
   -4.6757  -53.0950  -16.2360 O   0  0  0  0  0  0  0  0  0  0  0  0
   -1.3573  -49.7062  -15.1338 C   0  0  0  0  0  0  0  0  0  0  0  0
   -1.0507  -48.7690  -14.5635 N   0  0  0  0  0  0  0  0  0  0  0  0
 25 26  1  0  0  0
 26 19  1  0  0  0
 19 20  2  0  0  0
 20 21  1  0  0  0
 21 17  1  0  0  0
 17  1  1  0  0  0
  1  2  2  0  0  0
  2  3  1  0  0  0
  3  4  2  0  0  0
  4  5  1  0  0  0
  5  6  2  0  0  0
  6  7  1  0  0  0
  7  8  2  0  0  0
  8  9  1  0  0  0
  9 10  2  0  0  0
  8 11  1  0  0  0
 11 12  1  0  0  0
 12 13  1  0  0  0
 13 14  1  0  0  0
 14 15  1  0  0  0
 15 16  1  0  0  0
 21 22  2  0  0  0
 22 23  1  0  0  0
 23 24  2  0  0  0
 23 27  1  0  0  0
 27 28  3  0  0  0
 24 19  1  0  0  0
 10  1  1  0  0  0
 16 11  1  0  0  0
 10  5  1  0  0  0
 17 18  1  0  0  0
M  END
> <minimizedAffinity>
-6.68658

> <CNNscore>
0.7672472000

> <CNNaffinity>
6.3786239624

> <CNN_VS>
4.8939814568

> <CNNaffinity_variance>
0.1926402450

$$$$
[H]c1nc(N([H])c2c([H])c(C#N)c([H])c(OC([H])([H])[H])c2[H])c2c([H])c(N3C([H])([H])C([H])([H])OC([H])([H])C3([H])[H])c([H])c([H])c2n1


 28 31  0  0  0  0  0  0  0  0999 V2000
   -0.3026  -53.6151  -20.3837 C   0  0  0  0  0  0  0  0  0  0  0  0
   -1.2903  -54.3835  -20.8901 N   0  0  0  0  0  0  0  0  0  0  0  0
   -1.5474  -54.4331  -22.1983 C   0  0  0  0  0  0  0  0  0  0  0  0
   -0.8405  -53.7223  -23.0940 N   0  0  0  0  0  0  0  0  0  0  0  0
    0.1622  -52.9298  -22.6797 C   0  0  0  0  0  0  0  0  0  0  0  0
    0.8873  -52.2024  -23.6000 C   0  0  0  0  0  0  0  0  0  0  0  0
    1.8998  -51.4107  -23.1296 C   0  0  0  0  0  0  0  0  0  0  0  0
    2.2159  -51.3143  -21.8031 C   0  0  0  0  0  0  0  0  0  0  0  0
    1.4588  -52.0677  -20.8894 C   0  0  0  0  0  0  0  0  0  0  0  0
    0.4288  -52.8805  -21.3063 C   0  0  0  0  0  0  0  0  0  0  0  0
    3.2813  -50.4851  -21.3155 N   0  0  0  0  0  0  0  0  0  0  0  0
    4.0146  -49.5992  -22.1797 C   0  0  0  0  0  0  0  0  0  0  0  0
    5.3788  -49.3765  -21.5524 C   0  0  0  0  0  0  0  0  0  0  0  0
    5.1792  -48.7811  -20.3337 O   0  0  0  0  0  0  0  0  0  0  0  0
    4.5637  -49.5741  -19.4027 C   0  0  0  0  0  0  0  0  0  0  0  0
    3.5878  -50.5690  -19.9268 C   0  0  0  0  0  0  0  0  0  0  0  0
   -0.0634  -53.5477  -19.0148 N   0  0  0  0  0  0  0  0  0  0  0  0
    0.7383  -54.1116  -18.5983 H   0  0  0  0  0  0  0  0  0  0  0  0
   -0.8008  -50.8873  -16.5844 C   0  0  0  0  0  0  0  0  0  0  0  0
   -0.1696  -51.6381  -17.5403 C   0  0  0  0  0  0  0  0  0  0  0  0
   -0.7755  -52.7973  -18.0467 C   0  0  0  0  0  0  0  0  0  0  0  0
   -1.9996  -53.1653  -17.5735 C   0  0  0  0  0  0  0  0  0  0  0  0
   -2.6421  -52.4105  -16.6080 C   0  0  0  0  0  0  0  0  0  0  0  0
   -2.0323  -51.2788  -16.1254 C   0  0  0  0  0  0  0  0  0  0  0  0
   -0.8987  -48.6517  -15.7001 C   0  0  0  0  0  0  0  0  0  0  0  0
   -0.1461  -49.7489  -16.1237 O   0  0  0  0  0  0  0  0  0  0  0  0
   -3.9452  -52.7945  -16.0993 C   0  0  0  0  0  0  0  0  0  0  0  0
   -4.9727  -53.1005  -15.7143 N   0  0  0  0  0  0  0  0  0  0  0  0
 25 26  1  0  0  0
 26 19  1  0  0  0
 19 20  2  0  0  0
 20 21  1  0  0  0
 21 17  1  0  0  0
 17  1  1  0  0  0
  1  2  2  0  0  0
  2  3  1  0  0  0
  3  4  2  0  0  0
  4  5  1  0  0  0
  5  6  2  0  0  0
  6  7  1  0  0  0
  7  8  2  0  0  0
  8  9  1  0  0  0
  9 10  2  0  0  0
  8 11  1  0  0  0
 11 12  1  0  0  0
 12 13  1  0  0  0
 13 14  1  0  0  0
 14 15  1  0  0  0
 15 16  1  0  0  0
 21 22  2  0  0  0
 22 23  1  0  0  0
 23 24  2  0  0  0
 23 27  1  0  0  0
 27 28  3  0  0  0
 24 19  1  0  0  0
 10  1  1  0  0  0
 16 11  1  0  0  0
 10  5  1  0  0  0
 17 18  1  0  0  0
M  END
> <minimizedAffinity>
-6.89170

> <CNNscore>
0.7127566338

> <CNNaffinity>
6.3410129547

> <CNN_VS>
4.5195989609

> <CNNaffinity_variance>
0.1701665372

$$$$
[H]c1nc(N([H])c2c([H])c(C#N)c([H])c(OC([H])([H])[H])c2[H])c2c([H])c(N3C([H])([H])C([H])([H])OC([H])([H])C3([H])[H])c([H])c([H])c2n1


 28 31  0  0  0  0  0  0  0  0999 V2000
   -0.5039  -52.9525  -23.4983 C   0  0  0  0  0  0  0  0  0  0  0  0
   -1.0835  -54.1481  -23.7372 N   0  0  0  0  0  0  0  0  0  0  0  0
   -1.2720  -55.0483  -22.7707 C   0  0  0  0  0  0  0  0  0  0  0  0
   -0.8973  -54.8224  -21.4995 N   0  0  0  0  0  0  0  0  0  0  0  0
   -0.3123  -53.6587  -21.1699 C   0  0  0  0  0  0  0  0  0  0  0  0
    0.0701  -53.4280  -19.8651 C   0  0  0  0  0  0  0  0  0  0  0  0
    0.6605  -52.2271  -19.5782 C   0  0  0  0  0  0  0  0  0  0  0  0
    0.8827  -51.2617  -20.5201 C   0  0  0  0  0  0  0  0  0  0  0  0
    0.4819  -51.5261  -21.8412 C   0  0  0  0  0  0  0  0  0  0  0  0
   -0.1164  -52.7168  -22.1868 C   0  0  0  0  0  0  0  0  0  0  0  0
    1.4991  -50.0023  -20.2130 N   0  0  0  0  0  0  0  0  0  0  0  0
    1.5290  -48.9175  -21.1573 C   0  0  0  0  0  0  0  0  0  0  0  0
    2.7180  -48.0413  -20.8072 C   0  0  0  0  0  0  0  0  0  0  0  0
    2.5122  -47.5541  -19.5423 O   0  0  0  0  0  0  0  0  0  0  0  0
    2.5524  -48.4979  -18.5514 C   0  0  0  0  0  0  0  0  0  0  0  0
    2.0841  -49.8619  -18.9216 C   0  0  0  0  0  0  0  0  0  0  0  0
   -0.2847  -52.0339  -24.5200 N   0  0  0  0  0  0  0  0  0  0  0  0
   -0.9795  -51.2398  -24.6636 H   0  0  0  0  0  0  0  0  0  0  0  0
    2.7294  -50.8440  -26.2601 C   0  0  0  0  0  0  0  0  0  0  0  0
    1.6886  -50.9347  -25.3744 C   0  0  0  0  0  0  0  0  0  0  0  0
    0.7875  -52.0072  -25.4458 C   0  0  0  0  0  0  0  0  0  0  0  0
    0.9625  -52.9559  -26.4087 C   0  0  0  0  0  0  0  0  0  0  0  0
    2.0123  -52.8696  -27.3059 C   0  0  0  0  0  0  0  0  0  0  0  0
    2.8838  -51.8120  -27.2190 C   0  0  0  0  0  0  0  0  0  0  0  0
    4.1149  -49.4404  -24.8816 C   0  0  0  0  0  0  0  0  0  0  0  0
    3.5877  -49.7555  -26.1356 O   0  0  0  0  0  0  0  0  0  0  0  0
    2.2064  -53.8752  -28.3332 C   0  0  0  0  0  0  0  0  0  0  0  0
    2.3632  -54.6751  -29.1289 N   0  0  0  0  0  0  0  0  0  0  0  0
 25 26  1  0  0  0
 26 19  1  0  0  0
 19 20  2  0  0  0
 20 21  1  0  0  0
 21 17  1  0  0  0
 17  1  1  0  0  0
  1  2  2  0  0  0
  2  3  1  0  0  0
  3  4  2  0  0  0
  4  5  1  0  0  0
  5  6  2  0  0  0
  6  7  1  0  0  0
  7  8  2  0  0  0
  8  9  1  0  0  0
  9 10  2  0  0  0
  8 11  1  0  0  0
 11 12  1  0  0  0
 12 13  1  0  0  0
 13 14  1  0  0  0
 14 15  1  0  0  0
 15 16  1  0  0  0
 21 22  2  0  0  0
 22 23  1  0  0  0
 23 24  2  0  0  0
 23 27  1  0  0  0
 27 28  3  0  0  0
 24 19  1  0  0  0
 10  1  1  0  0  0
 16 11  1  0  0  0
 10  5  1  0  0  0
 17 18  1  0  0  0
M  END
> <minimizedAffinity>
-7.06555

> <CNNscore>
0.6843764186

> <CNNaffinity>
6.6573791504

> <CNN_VS>
4.5561532974

> <CNNaffinity_variance>
0.1095451564

$$$$
[H]c1nc(N([H])c2c([H])c(C#N)c([H])c(OC([H])([H])[H])c2[H])c2c([H])c(N3C([H])([H])C([H])([H])OC([H])([H])C3([H])[H])c([H])c([H])c2n1


 28 31  0  0  0  0  0  0  0  0999 V2000
   -0.4504  -52.7680  -22.9372 C   0  0  0  0  0  0  0  0  0  0  0  0
   -1.1145  -53.9298  -23.1158 N   0  0  0  0  0  0  0  0  0  0  0  0
   -1.4816  -54.6993  -22.0896 C   0  0  0  0  0  0  0  0  0  0  0  0
   -1.2139  -54.3674  -20.8146 N   0  0  0  0  0  0  0  0  0  0  0  0
   -0.5564  -53.2278  -20.5425 C   0  0  0  0  0  0  0  0  0  0  0  0
   -0.2840  -52.8881  -19.2340 C   0  0  0  0  0  0  0  0  0  0  0  0
    0.3866  -51.7168  -19.0073 C   0  0  0  0  0  0  0  0  0  0  0  0
    0.7908  -50.8827  -20.0121 C   0  0  0  0  0  0  0  0  0  0  0  0
    0.4986  -51.2560  -21.3353 C   0  0  0  0  0  0  0  0  0  0  0  0
   -0.1731  -52.4231  -21.6220 C   0  0  0  0  0  0  0  0  0  0  0  0
    1.4907  -49.6534  -19.7685 N   0  0  0  0  0  0  0  0  0  0  0  0
    1.4181  -48.5414  -20.6782 C   0  0  0  0  0  0  0  0  0  0  0  0
    2.6766  -47.7142  -20.4880 C   0  0  0  0  0  0  0  0  0  0  0  0
    2.6792  -47.2602  -19.1944 O   0  0  0  0  0  0  0  0  0  0  0  0
    2.8331  -48.2350  -18.2455 C   0  0  0  0  0  0  0  0  0  0  0  0
    2.2664  -49.5715  -18.5763 C   0  0  0  0  0  0  0  0  0  0  0  0
   -0.0457  -51.9888  -24.0164 N   0  0  0  0  0  0  0  0  0  0  0  0
   -0.6326  -51.1462  -24.2989 H   0  0  0  0  0  0  0  0  0  0  0  0
    1.9553  -52.5668  -27.0479 C   0  0  0  0  0  0  0  0  0  0  0  0
    0.8908  -52.3615  -26.2110 C   0  0  0  0  0  0  0  0  0  0  0  0
    1.0952  -52.1703  -24.8366 C   0  0  0  0  0  0  0  0  0  0  0  0
    2.3671  -52.1927  -24.3470 C   0  0  0  0  0  0  0  0  0  0  0  0
    3.4464  -52.3994  -25.1879 C   0  0  0  0  0  0  0  0  0  0  0  0
    3.2252  -52.5840  -26.5304 C   0  0  0  0  0  0  0  0  0  0  0  0
    0.3903  -53.0896  -28.7993 C   0  0  0  0  0  0  0  0  0  0  0  0
    1.6847  -52.7498  -28.4008 O   0  0  0  0  0  0  0  0  0  0  0  0
    4.8033  -52.4238  -24.6754 C   0  0  0  0  0  0  0  0  0  0  0  0
    5.8661  -52.4572  -24.2670 N   0  0  0  0  0  0  0  0  0  0  0  0
 25 26  1  0  0  0
 26 19  1  0  0  0
 19 20  2  0  0  0
 20 21  1  0  0  0
 21 17  1  0  0  0
 17  1  1  0  0  0
  1  2  2  0  0  0
  2  3  1  0  0  0
  3  4  2  0  0  0
  4  5  1  0  0  0
  5  6  2  0  0  0
  6  7  1  0  0  0
  7  8  2  0  0  0
  8  9  1  0  0  0
  9 10  2  0  0  0
  8 11  1  0  0  0
 11 12  1  0  0  0
 12 13  1  0  0  0
 13 14  1  0  0  0
 14 15  1  0  0  0
 15 16  1  0  0  0
 21 22  2  0  0  0
 22 23  1  0  0  0
 23 24  2  0  0  0
 23 27  1  0  0  0
 27 28  3  0  0  0
 24 19  1  0  0  0
 10  1  1  0  0  0
 16 11  1  0  0  0
 10  5  1  0  0  0
 17 18  1  0  0  0
M  END
> <minimizedAffinity>
-7.61849

> <CNNscore>
0.6835932732

> <CNNaffinity>
6.7111191750

> <CNN_VS>
4.5876760483

> <CNNaffinity_variance>
0.1181217059

$$$$
[H]c1nc(N([H])c2c([H])c(C#N)c([H])c(OC([H])([H])[H])c2[H])c2c([H])c(N3C([H])([H])C([H])([H])OC([H])([H])C3([H])[H])c([H])c([H])c2n1


 28 31  0  0  0  0  0  0  0  0999 V2000
    0.1270  -53.6709  -21.7105 C   0  0  0  0  0  0  0  0  0  0  0  0
   -0.7804  -54.6698  -21.6731 N   0  0  0  0  0  0  0  0  0  0  0  0
   -1.4792  -55.0309  -22.7507 C   0  0  0  0  0  0  0  0  0  0  0  0
   -1.3246  -54.4240  -23.9403 N   0  0  0  0  0  0  0  0  0  0  0  0
   -0.4428  -53.4187  -24.0703 C   0  0  0  0  0  0  0  0  0  0  0  0
   -0.2844  -52.7981  -25.2917 C   0  0  0  0  0  0  0  0  0  0  0  0
    0.6269  -51.7805  -25.3746 C   0  0  0  0  0  0  0  0  0  0  0  0
    1.3754  -51.3614  -24.3102 C   0  0  0  0  0  0  0  0  0  0  0  0
    1.1915  -52.0133  -23.0786 C   0  0  0  0  0  0  0  0  0  0  0  0
    0.2885  -53.0428  -22.9373 C   0  0  0  0  0  0  0  0  0  0  0  0
    2.3326  -50.2958  -24.4037 N   0  0  0  0  0  0  0  0  0  0  0  0
    2.9957  -49.9728  -25.6388 C   0  0  0  0  0  0  0  0  0  0  0  0
    4.3089  -49.2972  -25.2877 C   0  0  0  0  0  0  0  0  0  0  0  0
    4.0103  -48.1475  -24.6031 O   0  0  0  0  0  0  0  0  0  0  0  0
    3.4524  -48.3445  -23.3685 C   0  0  0  0  0  0  0  0  0  0  0  0
    2.6027  -49.5576  -23.2156 C   0  0  0  0  0  0  0  0  0  0  0  0
    0.8278  -53.2826  -20.5730 N   0  0  0  0  0  0  0  0  0  0  0  0
    1.8768  -53.4595  -20.5225 H   0  0  0  0  0  0  0  0  0  0  0  0
   -1.3895  -52.6235  -17.7134 C   0  0  0  0  0  0  0  0  0  0  0  0
   -0.8348  -53.2034  -18.8233 C   0  0  0  0  0  0  0  0  0  0  0  0
    0.3144  -52.6549  -19.4112 C   0  0  0  0  0  0  0  0  0  0  0  0
    0.8696  -51.5374  -18.8627 C   0  0  0  0  0  0  0  0  0  0  0  0
    0.3137  -50.9475  -17.7413 C   0  0  0  0  0  0  0  0  0  0  0  0
   -0.8112  -51.5001  -17.1804 C   0  0  0  0  0  0  0  0  0  0  0  0
   -3.3626  -52.4683  -16.3449 C   0  0  0  0  0  0  0  0  0  0  0  0
   -2.5292  -53.2168  -17.1785 O   0  0  0  0  0  0  0  0  0  0  0  0
    0.8986  -49.7586  -17.1506 C   0  0  0  0  0  0  0  0  0  0  0  0
    1.3687  -48.8249  -16.6981 N   0  0  0  0  0  0  0  0  0  0  0  0
 25 26  1  0  0  0
 26 19  1  0  0  0
 19 20  2  0  0  0
 20 21  1  0  0  0
 21 17  1  0  0  0
 17  1  1  0  0  0
  1  2  2  0  0  0
  2  3  1  0  0  0
  3  4  2  0  0  0
  4  5  1  0  0  0
  5  6  2  0  0  0
  6  7  1  0  0  0
  7  8  2  0  0  0
  8  9  1  0  0  0
  9 10  2  0  0  0
  8 11  1  0  0  0
 11 12  1  0  0  0
 12 13  1  0  0  0
 13 14  1  0  0  0
 14 15  1  0  0  0
 15 16  1  0  0  0
 21 22  2  0  0  0
 22 23  1  0  0  0
 23 24  2  0  0  0
 23 27  1  0  0  0
 27 28  3  0  0  0
 24 19  1  0  0  0
 10  1  1  0  0  0
 16 11  1  0  0  0
 10  5  1  0  0  0
 17 18  1  0  0  0
M  END
> <minimizedAffinity>
-7.15180

> <CNNscore>
0.6702368259

> <CNNaffinity>
6.6605668068

> <CNN_VS>
4.4641571045

> <CNNaffinity_variance>
0.2030724287

$$$$
[H]c1nc(N([H])c2c([H])c(C#N)c([H])c(OC([H])([H])[H])c2[H])c2c([H])c(N3C([H])([H])C([H])([H])OC([H])([H])C3([H])[H])c([H])c([H])c2n1


 28 31  0  0  0  0  0  0  0  0999 V2000
    0.0798  -53.8107  -21.6884 C   0  0  0  0  0  0  0  0  0  0  0  0
   -0.7970  -54.8309  -21.8024 N   0  0  0  0  0  0  0  0  0  0  0  0
   -1.4439  -55.0833  -22.9417 C   0  0  0  0  0  0  0  0  0  0  0  0
   -1.2640  -54.3391  -24.0467 N   0  0  0  0  0  0  0  0  0  0  0  0
   -0.4094  -53.3026  -24.0250 C   0  0  0  0  0  0  0  0  0  0  0  0
   -0.2250  -52.5411  -25.1599 C   0  0  0  0  0  0  0  0  0  0  0  0
    0.6570  -51.4970  -25.0888 C   0  0  0  0  0  0  0  0  0  0  0  0
    1.3520  -51.1841  -23.9541 C   0  0  0  0  0  0  0  0  0  0  0  0
    1.1428  -51.9787  -22.8137 C   0  0  0  0  0  0  0  0  0  0  0  0
    0.2674  -53.0411  -22.8278 C   0  0  0  0  0  0  0  0  0  0  0  0
    2.2787  -50.0900  -23.8862 N   0  0  0  0  0  0  0  0  0  0  0  0
    3.0867  -49.7041  -25.0121 C   0  0  0  0  0  0  0  0  0  0  0  0
    4.3206  -49.0060  -24.4696 C   0  0  0  0  0  0  0  0  0  0  0  0
    3.8986  -47.8907  -23.7932 O   0  0  0  0  0  0  0  0  0  0  0  0
    3.1909  -48.1477  -22.6498 C   0  0  0  0  0  0  0  0  0  0  0  0
    2.3678  -49.3884  -22.6495 C   0  0  0  0  0  0  0  0  0  0  0  0
    0.7256  -53.5382  -20.4866 N   0  0  0  0  0  0  0  0  0  0  0  0
    1.6926  -53.9483  -20.3108 H   0  0  0  0  0  0  0  0  0  0  0  0
    0.6046  -50.8471  -17.9823 C   0  0  0  0  0  0  0  0  0  0  0  0
    1.0019  -51.6282  -19.0348 C   0  0  0  0  0  0  0  0  0  0  0  0
    0.2512  -52.7532  -19.4067 C   0  0  0  0  0  0  0  0  0  0  0  0
   -0.8773  -53.0574  -18.7055 C   0  0  0  0  0  0  0  0  0  0  0  0
   -1.2837  -52.2716  -17.6415 C   0  0  0  0  0  0  0  0  0  0  0  0
   -0.5352  -51.1742  -17.2936 C   0  0  0  0  0  0  0  0  0  0  0  0
    1.3535  -49.2270  -16.3686 C   0  0  0  0  0  0  0  0  0  0  0  0
    1.3933  -49.7453  -17.6645 O   0  0  0  0  0  0  0  0  0  0  0  0
   -2.4838  -52.5876  -16.8904 C   0  0  0  0  0  0  0  0  0  0  0  0
   -3.4283  -52.8484  -16.3095 N   0  0  0  0  0  0  0  0  0  0  0  0
 25 26  1  0  0  0
 26 19  1  0  0  0
 19 20  2  0  0  0
 20 21  1  0  0  0
 21 17  1  0  0  0
 17  1  1  0  0  0
  1  2  2  0  0  0
  2  3  1  0  0  0
  3  4  2  0  0  0
  4  5  1  0  0  0
  5  6  2  0  0  0
  6  7  1  0  0  0
  7  8  2  0  0  0
  8  9  1  0  0  0
  9 10  2  0  0  0
  8 11  1  0  0  0
 11 12  1  0  0  0
 12 13  1  0  0  0
 13 14  1  0  0  0
 14 15  1  0  0  0
 15 16  1  0  0  0
 21 22  2  0  0  0
 22 23  1  0  0  0
 23 24  2  0  0  0
 23 27  1  0  0  0
 27 28  3  0  0  0
 24 19  1  0  0  0
 10  1  1  0  0  0
 16 11  1  0  0  0
 10  5  1  0  0  0
 17 18  1  0  0  0
M  END
> <minimizedAffinity>
-6.94537

> <CNNscore>
0.6639462113

> <CNNaffinity>
6.5866775513

> <CNN_VS>
4.3731994629

> <CNNaffinity_variance>
0.2298315465

$$$$
[H]c1nc(N([H])c2c([H])c(C#N)c([H])c(OC([H])([H])[H])c2[H])c2c([H])c(N3C([H])([H])C([H])([H])OC([H])([H])C3([H])[H])c([H])c([H])c2n1


 28 31  0  0  0  0  0  0  0  0999 V2000
   -0.1050  -52.1000  -21.3044 C   0  0  0  0  0  0  0  0  0  0  0  0
   -0.6263  -52.4598  -20.1123 N   0  0  0  0  0  0  0  0  0  0  0  0
   -1.2941  -53.6032  -19.9487 C   0  0  0  0  0  0  0  0  0  0  0  0
   -1.4901  -54.4683  -20.9589 N   0  0  0  0  0  0  0  0  0  0  0  0
   -1.0059  -54.1920  -22.1814 C   0  0  0  0  0  0  0  0  0  0  0  0
   -1.2065  -55.0812  -23.2162 C   0  0  0  0  0  0  0  0  0  0  0  0
   -0.6929  -54.7564  -24.4425 C   0  0  0  0  0  0  0  0  0  0  0  0
    0.0009  -53.6024  -24.6783 C   0  0  0  0  0  0  0  0  0  0  0  0
    0.1891  -52.7161  -23.6037 C   0  0  0  0  0  0  0  0  0  0  0  0
   -0.3057  -52.9914  -22.3489 C   0  0  0  0  0  0  0  0  0  0  0  0
    0.5406  -53.2683  -25.9657 N   0  0  0  0  0  0  0  0  0  0  0  0
   -0.2754  -53.2380  -27.1501 C   0  0  0  0  0  0  0  0  0  0  0  0
    0.6379  -53.4760  -28.3389 C   0  0  0  0  0  0  0  0  0  0  0  0
    1.5469  -52.4502  -28.3715 O   0  0  0  0  0  0  0  0  0  0  0  0
    2.4341  -52.4378  -27.3288 C   0  0  0  0  0  0  0  0  0  0  0  0
    1.9300  -52.9600  -26.0289 C   0  0  0  0  0  0  0  0  0  0  0  0
    0.5631  -50.8910  -21.4705 N   0  0  0  0  0  0  0  0  0  0  0  0
    0.5261  -50.4016  -22.4157 H   0  0  0  0  0  0  0  0  0  0  0  0
    3.3907  -49.0596  -19.9944 C   0  0  0  0  0  0  0  0  0  0  0  0
    2.5976  -49.7266  -20.8899 C   0  0  0  0  0  0  0  0  0  0  0  0
    1.3275  -50.1844  -20.5094 C   0  0  0  0  0  0  0  0  0  0  0  0
    0.8955  -49.9565  -19.2369 C   0  0  0  0  0  0  0  0  0  0  0  0
    1.6923  -49.2828  -18.3281 C   0  0  0  0  0  0  0  0  0  0  0  0
    2.9323  -48.8424  -18.7204 C   0  0  0  0  0  0  0  0  0  0  0  0
    5.7744  -48.9484  -19.6852 C   0  0  0  0  0  0  0  0  0  0  0  0
    4.6397  -48.6316  -20.4348 O   0  0  0  0  0  0  0  0  0  0  0  0
    1.2400  -49.0353  -16.9722 C   0  0  0  0  0  0  0  0  0  0  0  0
    0.8996  -48.8385  -15.9031 N   0  0  0  0  0  0  0  0  0  0  0  0
 25 26  1  0  0  0
 26 19  1  0  0  0
 19 20  2  0  0  0
 20 21  1  0  0  0
 21 17  1  0  0  0
 17  1  1  0  0  0
  1  2  2  0  0  0
  2  3  1  0  0  0
  3  4  2  0  0  0
  4  5  1  0  0  0
  5  6  2  0  0  0
  6  7  1  0  0  0
  7  8  2  0  0  0
  8  9  1  0  0  0
  9 10  2  0  0  0
  8 11  1  0  0  0
 11 12  1  0  0  0
 12 13  1  0  0  0
 13 14  1  0  0  0
 14 15  1  0  0  0
 15 16  1  0  0  0
 21 22  2  0  0  0
 22 23  1  0  0  0
 23 24  2  0  0  0
 23 27  1  0  0  0
 27 28  3  0  0  0
 24 19  1  0  0  0
 10  1  1  0  0  0
 16 11  1  0  0  0
 10  5  1  0  0  0
 17 18  1  0  0  0
M  END
> <minimizedAffinity>
-7.33410

> <CNNscore>
0.6415822506

> <CNNaffinity>
6.7966604233

> <CNN_VS>
4.3606166840

> <CNNaffinity_variance>
0.3919370174

$$$$
[H]c1nc(N([H])c2c([H])c(C#N)c([H])c(OC([H])([H])[H])c2[H])c2c([H])c(N3C([H])([H])C([H])([H])OC([H])([H])C3([H])[H])c([H])c([H])c2n1


 28 31  0  0  0  0  0  0  0  0999 V2000
   -0.3860  -53.1740  -23.9808 C   0  0  0  0  0  0  0  0  0  0  0  0
   -0.9499  -54.3324  -24.3842 N   0  0  0  0  0  0  0  0  0  0  0  0
   -1.3958  -55.2418  -23.5157 C   0  0  0  0  0  0  0  0  0  0  0  0
   -1.3120  -55.0628  -22.1860 N   0  0  0  0  0  0  0  0  0  0  0  0
   -0.7651  -53.9385  -21.6941 C   0  0  0  0  0  0  0  0  0  0  0  0
   -0.6813  -53.7559  -20.3297 C   0  0  0  0  0  0  0  0  0  0  0  0
   -0.1176  -52.5938  -19.8771 C   0  0  0  0  0  0  0  0  0  0  0  0
    0.3584  -51.6215  -20.7118 C   0  0  0  0  0  0  0  0  0  0  0  0
    0.2589  -51.8365  -22.0972 C   0  0  0  0  0  0  0  0  0  0  0  0
   -0.2985  -52.9868  -22.6086 C   0  0  0  0  0  0  0  0  0  0  0  0
    0.9455  -50.4029  -20.2315 N   0  0  0  0  0  0  0  0  0  0  0  0
    0.8857  -49.1790  -20.9851 C   0  0  0  0  0  0  0  0  0  0  0  0
    2.0601  -48.3199  -20.5527 C   0  0  0  0  0  0  0  0  0  0  0  0
    1.9057  -48.0539  -19.2167 O   0  0  0  0  0  0  0  0  0  0  0  0
    2.0328  -49.1433  -18.3973 C   0  0  0  0  0  0  0  0  0  0  0  0
    1.5940  -50.4483  -18.9638 C   0  0  0  0  0  0  0  0  0  0  0  0
    0.1032  -52.2466  -24.8953 N   0  0  0  0  0  0  0  0  0  0  0  0
   -0.5745  -51.7643  -25.5604 H   0  0  0  0  0  0  0  0  0  0  0  0
    3.7425  -52.0619  -24.3959 C   0  0  0  0  0  0  0  0  0  0  0  0
    2.4308  -52.4387  -24.2810 C   0  0  0  0  0  0  0  0  0  0  0  0
    1.4466  -51.8347  -25.0770 C   0  0  0  0  0  0  0  0  0  0  0  0
    1.8144  -50.8680  -25.9648 C   0  0  0  0  0  0  0  0  0  0  0  0
    3.1381  -50.4836  -26.0855 C   0  0  0  0  0  0  0  0  0  0  0  0
    4.0867  -51.0875  -25.2974 C   0  0  0  0  0  0  0  0  0  0  0  0
    5.1200  -52.0562  -22.4230 C   0  0  0  0  0  0  0  0  0  0  0  0
    4.6698  -52.7000  -23.5774 O   0  0  0  0  0  0  0  0  0  0  0  0
    3.5384  -49.4564  -27.0283 C   0  0  0  0  0  0  0  0  0  0  0  0
    3.8669  -48.6495  -27.7622 N   0  0  0  0  0  0  0  0  0  0  0  0
 25 26  1  0  0  0
 26 19  1  0  0  0
 19 20  2  0  0  0
 20 21  1  0  0  0
 21 17  1  0  0  0
 17  1  1  0  0  0
  1  2  2  0  0  0
  2  3  1  0  0  0
  3  4  2  0  0  0
  4  5  1  0  0  0
  5  6  2  0  0  0
  6  7  1  0  0  0
  7  8  2  0  0  0
  8  9  1  0  0  0
  9 10  2  0  0  0
  8 11  1  0  0  0
 11 12  1  0  0  0
 12 13  1  0  0  0
 13 14  1  0  0  0
 14 15  1  0  0  0
 15 16  1  0  0  0
 21 22  2  0  0  0
 22 23  1  0  0  0
 23 24  2  0  0  0
 23 27  1  0  0  0
 27 28  3  0  0  0
 24 19  1  0  0  0
 10  1  1  0  0  0
 16 11  1  0  0  0
 10  5  1  0  0  0
 17 18  1  0  0  0
M  END
> <minimizedAffinity>
-7.34499

> <CNNscore>
0.6333191395

> <CNNaffinity>
6.5382280350

> <CNN_VS>
4.1407847404

> <CNNaffinity_variance>
0.0814824253

$$$$
[H]c1nc(N([H])c2c([H])c(C#N)c([H])c(OC([H])([H])[H])c2[H])c2c([H])c(N3C([H])([H])C([H])([H])OC([H])([H])C3([H])[H])c([H])c([H])c2n1


 28 31  0  0  0  0  0  0  0  0999 V2000
    0.4256  -52.2993  -22.4863 C   0  0  0  0  0  0  0  0  0  0  0  0
   -0.3342  -53.4076  -22.3556 N   0  0  0  0  0  0  0  0  0  0  0  0
   -0.8477  -53.7784  -21.1814 C   0  0  0  0  0  0  0  0  0  0  0  0
   -0.6415  -53.0732  -20.0555 N   0  0  0  0  0  0  0  0  0  0  0  0
    0.1027  -51.9553  -20.0916 C   0  0  0  0  0  0  0  0  0  0  0  0
    0.3120  -51.2323  -18.9360 C   0  0  0  0  0  0  0  0  0  0  0  0
    1.0757  -50.1000  -19.0237 C   0  0  0  0  0  0  0  0  0  0  0  0
    1.6308  -49.6639  -20.1943 C   0  0  0  0  0  0  0  0  0  0  0  0
    1.3996  -50.4220  -21.3551 C   0  0  0  0  0  0  0  0  0  0  0  0
    0.6397  -51.5695  -21.3255 C   0  0  0  0  0  0  0  0  0  0  0  0
    2.4280  -48.4734  -20.2812 N   0  0  0  0  0  0  0  0  0  0  0  0
    3.1568  -47.9596  -19.1524 C   0  0  0  0  0  0  0  0  0  0  0  0
    3.3463  -46.4697  -19.3722 C   0  0  0  0  0  0  0  0  0  0  0  0
    4.0856  -46.3131  -20.5161 O   0  0  0  0  0  0  0  0  0  0  0  0
    3.4477  -46.6919  -21.6668 C   0  0  0  0  0  0  0  0  0  0  0  0
    2.4755  -47.8127  -21.5425 C   0  0  0  0  0  0  0  0  0  0  0  0
    0.9812  -51.9390  -23.7099 N   0  0  0  0  0  0  0  0  0  0  0  0
    1.8327  -51.2997  -23.7266 H   0  0  0  0  0  0  0  0  0  0  0  0
   -1.2758  -52.4752  -26.5641 C   0  0  0  0  0  0  0  0  0  0  0  0
   -0.7964  -52.1028  -25.3365 C   0  0  0  0  0  0  0  0  0  0  0  0
    0.5487  -52.3211  -25.0039 C   0  0  0  0  0  0  0  0  0  0  0  0
    1.3699  -52.9091  -25.9191 C   0  0  0  0  0  0  0  0  0  0  0  0
    0.8911  -53.2871  -27.1610 C   0  0  0  0  0  0  0  0  0  0  0  0
   -0.4287  -53.0643  -27.4675 C   0  0  0  0  0  0  0  0  0  0  0  0
   -3.1206  -52.4904  -28.1090 C   0  0  0  0  0  0  0  0  0  0  0  0
   -2.6196  -52.2308  -26.8317 O   0  0  0  0  0  0  0  0  0  0  0  0
    1.7584  -53.9127  -28.1412 C   0  0  0  0  0  0  0  0  0  0  0  0
    2.4467  -54.4116  -28.8994 N   0  0  0  0  0  0  0  0  0  0  0  0
 25 26  1  0  0  0
 26 19  1  0  0  0
 19 20  2  0  0  0
 20 21  1  0  0  0
 21 17  1  0  0  0
 17  1  1  0  0  0
  1  2  2  0  0  0
  2  3  1  0  0  0
  3  4  2  0  0  0
  4  5  1  0  0  0
  5  6  2  0  0  0
  6  7  1  0  0  0
  7  8  2  0  0  0
  8  9  1  0  0  0
  9 10  2  0  0  0
  8 11  1  0  0  0
 11 12  1  0  0  0
 12 13  1  0  0  0
 13 14  1  0  0  0
 14 15  1  0  0  0
 15 16  1  0  0  0
 21 22  2  0  0  0
 22 23  1  0  0  0
 23 24  2  0  0  0
 23 27  1  0  0  0
 27 28  3  0  0  0
 24 19  1  0  0  0
 10  1  1  0  0  0
 16 11  1  0  0  0
 10  5  1  0  0  0
 17 18  1  0  0  0
M  END
> <minimizedAffinity>
-7.39407

> <CNNscore>
0.6295154691

> <CNNaffinity>
6.7418928146

> <CNN_VS>
4.2441258430

> <CNNaffinity_variance>
0.3726260066

$$$$
[H]c1nc(N([H])c2c([H])c([H])c3c(c([H])nn3C([H])([H])c3c([H])c([H])c([H])c(Cl)c3[H])c2[H])c2c([H])c(F)c([H])c([H])c2n1


 30 34  0  0  0  0  0  0  0  0999 V2000
   -0.3942  -53.0261  -19.5878 C   0  0  0  0  0  0  0  0  0  0  0  0
    0.1337  -51.8606  -20.0473 C   0  0  0  0  0  0  0  0  0  0  0  0
    0.2892  -51.6293  -21.4107 C   0  0  0  0  0  0  0  0  0  0  0  0
   -0.0994  -52.6013  -22.3033 C   0  0  0  0  0  0  0  0  0  0  0  0
   -0.0824  -52.6817  -23.6494 N   0  0  0  0  0  0  0  0  0  0  0  0
   -0.5716  -53.8333  -24.0101 N   0  0  0  0  0  0  0  0  0  0  0  0
   -0.9268  -54.5512  -22.9392 C   0  0  0  0  0  0  0  0  0  0  0  0
   -0.6306  -53.7740  -21.8193 C   0  0  0  0  0  0  0  0  0  0  0  0
   -0.8005  -54.0396  -20.4784 C   0  0  0  0  0  0  0  0  0  0  0  0
   -0.5838  -53.2503  -18.2034 N   0  0  0  0  0  0  0  0  0  0  0  0
    0.1216  -53.9543  -17.7978 H   0  0  0  0  0  0  0  0  0  0  0  0
    1.5295  -49.2669  -15.8413 F   0  0  0  0  0  0  0  0  0  0  0  0
    0.3050  -49.8503  -15.8009 C   0  0  0  0  0  0  0  0  0  0  0  0
   -0.6521  -49.3325  -14.9605 C   0  0  0  0  0  0  0  0  0  0  0  0
   -1.8930  -49.9412  -14.9341 C   0  0  0  0  0  0  0  0  0  0  0  0
   -2.1835  -51.0361  -15.7191 C   0  0  0  0  0  0  0  0  0  0  0  0
   -3.3915  -51.6191  -15.6870 N   0  0  0  0  0  0  0  0  0  0  0  0
   -3.7209  -52.6878  -16.4350 C   0  0  0  0  0  0  0  0  0  0  0  0
   -2.7706  -53.1670  -17.2402 N   0  0  0  0  0  0  0  0  0  0  0  0
   -1.5398  -52.6771  -17.3595 C   0  0  0  0  0  0  0  0  0  0  0  0
   -1.2281  -51.5835  -16.5833 C   0  0  0  0  0  0  0  0  0  0  0  0
   -0.0055  -50.9599  -16.5896 C   0  0  0  0  0  0  0  0  0  0  0  0
    0.4088  -51.6456  -24.5448 C   0  0  0  0  0  0  0  0  0  0  0  0
    0.1273  -52.0711  -25.9326 C   0  0  0  0  0  0  0  0  0  0  0  0
    1.1815  -52.4338  -26.7383 C   0  0  0  0  0  0  0  0  0  0  0  0
    1.0299  -52.8465  -28.0350 C   0  0  0  0  0  0  0  0  0  0  0  0
   -0.2407  -52.9031  -28.5641 C   0  0  0  0  0  0  0  0  0  0  0  0
   -1.3032  -52.5418  -27.7645 C   0  0  0  0  0  0  0  0  0  0  0  0
   -2.9168  -52.6105  -28.4265 Cl  0  0  0  0  0  0  0  0  0  0  0  0
   -1.1420  -52.1236  -26.4481 C   0  0  0  0  0  0  0  0  0  0  0  0
 12 13  1  0  0  0
 13 14  2  0  0  0
 14 15  1  0  0  0
 15 16  2  0  0  0
 16 17  1  0  0  0
 17 18  2  0  0  0
 18 19  1  0  0  0
 19 20  2  0  0  0
 20 10  1  0  0  0
 10  1  1  0  0  0
  1  2  2  0  0  0
  2  3  1  0  0  0
  3  4  2  0  0  0
  4  5  1  0  0  0
  5 23  1  0  0  0
 23 24  1  0  0  0
 24 25  2  0  0  0
 25 26  1  0  0  0
 26 27  2  0  0  0
 27 28  1  0  0  0
 28 29  1  0  0  0
 28 30  2  0  0  0
  5  6  1  0  0  0
  6  7  2  0  0  0
  7  8  1  0  0  0
  8  9  2  0  0  0
 20 21  1  0  0  0
 21 22  2  0  0  0
 22 13  1  0  0  0
 21 16  1  0  0  0
  9  1  1  0  0  0
  8  4  1  0  0  0
 30 24  1  0  0  0
 10 11  1  0  0  0
M  END
> <minimizedAffinity>
-9.56477

> <CNNscore>
0.6388970613

> <CNNaffinity>
7.0529913902

> <CNN_VS>
4.5061354637

> <CNNaffinity_variance>
0.0781876892

$$$$
[H]c1nc(N([H])c2c([H])c([H])c3c(c([H])nn3C([H])([H])c3c([H])c([H])c([H])c(Cl)c3[H])c2[H])c2c([H])c(F)c([H])c([H])c2n1


 30 34  0  0  0  0  0  0  0  0999 V2000
   -0.5094  -53.0249  -19.7958 C   0  0  0  0  0  0  0  0  0  0  0  0
   -0.0217  -51.8755  -20.3337 C   0  0  0  0  0  0  0  0  0  0  0  0
    0.1130  -51.7259  -21.7106 C   0  0  0  0  0  0  0  0  0  0  0  0
   -0.2551  -52.7632  -22.5360 C   0  0  0  0  0  0  0  0  0  0  0  0
   -0.2492  -52.9276  -23.8744 N   0  0  0  0  0  0  0  0  0  0  0  0
   -0.7070  -54.1136  -24.1566 N   0  0  0  0  0  0  0  0  0  0  0  0
   -1.0295  -54.7728  -23.0387 C   0  0  0  0  0  0  0  0  0  0  0  0
   -0.7456  -53.9183  -21.9731 C   0  0  0  0  0  0  0  0  0  0  0  0
   -0.8939  -54.1040  -20.6164 C   0  0  0  0  0  0  0  0  0  0  0  0
   -0.6782  -53.1671  -18.3980 N   0  0  0  0  0  0  0  0  0  0  0  0
   -0.6939  -54.1967  -18.0856 H   0  0  0  0  0  0  0  0  0  0  0  0
   -5.2271  -53.6668  -16.1686 F   0  0  0  0  0  0  0  0  0  0  0  0
   -4.1972  -52.7937  -16.0319 C   0  0  0  0  0  0  0  0  0  0  0  0
   -4.3073  -51.7717  -15.1189 C   0  0  0  0  0  0  0  0  0  0  0  0
   -3.2471  -50.8931  -14.9948 C   0  0  0  0  0  0  0  0  0  0  0  0
   -2.1041  -51.0199  -15.7541 C   0  0  0  0  0  0  0  0  0  0  0  0
   -1.0801  -50.1625  -15.6254 N   0  0  0  0  0  0  0  0  0  0  0  0
    0.0545  -50.2470  -16.3433 C   0  0  0  0  0  0  0  0  0  0  0  0
    0.1308  -51.2495  -17.2210 N   0  0  0  0  0  0  0  0  0  0  0  0
   -0.8146  -52.1595  -17.4384 C   0  0  0  0  0  0  0  0  0  0  0  0
   -1.9656  -52.0508  -16.6908 C   0  0  0  0  0  0  0  0  0  0  0  0
   -3.0324  -52.9081  -16.7933 C   0  0  0  0  0  0  0  0  0  0  0  0
    0.2015  -51.9358  -24.8387 C   0  0  0  0  0  0  0  0  0  0  0  0
   -0.5685  -52.1296  -26.0860 C   0  0  0  0  0  0  0  0  0  0  0  0
   -1.9356  -51.9822  -26.0473 C   0  0  0  0  0  0  0  0  0  0  0  0
   -2.7401  -52.1353  -27.1446 C   0  0  0  0  0  0  0  0  0  0  0  0
   -2.1556  -52.4530  -28.3509 C   0  0  0  0  0  0  0  0  0  0  0  0
   -0.7866  -52.6026  -28.3996 C   0  0  0  0  0  0  0  0  0  0  0  0
   -0.0374  -53.0051  -29.9238 Cl  0  0  0  0  0  0  0  0  0  0  0  0
    0.0245  -52.4456  -27.2810 C   0  0  0  0  0  0  0  0  0  0  0  0
 12 13  1  0  0  0
 13 14  2  0  0  0
 14 15  1  0  0  0
 15 16  2  0  0  0
 16 17  1  0  0  0
 17 18  2  0  0  0
 18 19  1  0  0  0
 19 20  2  0  0  0
 20 10  1  0  0  0
 10  1  1  0  0  0
  1  2  2  0  0  0
  2  3  1  0  0  0
  3  4  2  0  0  0
  4  5  1  0  0  0
  5 23  1  0  0  0
 23 24  1  0  0  0
 24 25  2  0  0  0
 25 26  1  0  0  0
 26 27  2  0  0  0
 27 28  1  0  0  0
 28 29  1  0  0  0
 28 30  2  0  0  0
  5  6  1  0  0  0
  6  7  2  0  0  0
  7  8  1  0  0  0
  8  9  2  0  0  0
 20 21  1  0  0  0
 21 22  2  0  0  0
 22 13  1  0  0  0
 21 16  1  0  0  0
  9  1  1  0  0  0
  8  4  1  0  0  0
 30 24  1  0  0  0
 10 11  1  0  0  0
M  END
> <minimizedAffinity>
-10.26349

> <CNNscore>
0.6326612830

> <CNNaffinity>
7.0193662643

> <CNN_VS>
4.4408812523

> <CNNaffinity_variance>
0.0615999699

$$$$
[H]c1nc(N([H])c2c([H])c([H])c3c(c([H])nn3C([H])([H])c3c([H])c([H])c([H])c(Cl)c3[H])c2[H])c2c([H])c(F)c([H])c([H])c2n1


 30 34  0  0  0  0  0  0  0  0999 V2000
    0.6518  -52.3341  -20.2094 C   0  0  0  0  0  0  0  0  0  0  0  0
   -0.3992  -52.9566  -19.6126 C   0  0  0  0  0  0  0  0  0  0  0  0
   -0.7310  -52.6964  -18.2864 C   0  0  0  0  0  0  0  0  0  0  0  0
    0.0222  -51.7931  -17.5727 C   0  0  0  0  0  0  0  0  0  0  0  0
   -0.0390  -51.3333  -16.3064 N   0  0  0  0  0  0  0  0  0  0  0  0
    0.9205  -50.4723  -16.1226 N   0  0  0  0  0  0  0  0  0  0  0  0
    1.6444  -50.3278  -17.2377 C   0  0  0  0  0  0  0  0  0  0  0  0
    1.0820  -51.1741  -18.1935 C   0  0  0  0  0  0  0  0  0  0  0  0
    1.4411  -51.4048  -19.5031 C   0  0  0  0  0  0  0  0  0  0  0  0
    0.9709  -52.5724  -21.5674 N   0  0  0  0  0  0  0  0  0  0  0  0
    1.9116  -52.1358  -21.8542 H   0  0  0  0  0  0  0  0  0  0  0  0
    1.5043  -50.2742  -26.0781 F   0  0  0  0  0  0  0  0  0  0  0  0
    0.8145  -51.3596  -25.6449 C   0  0  0  0  0  0  0  0  0  0  0  0
    0.0496  -52.0649  -26.5437 C   0  0  0  0  0  0  0  0  0  0  0  0
   -0.6452  -53.1674  -26.0825 C   0  0  0  0  0  0  0  0  0  0  0  0
   -0.5868  -53.5655  -24.7644 C   0  0  0  0  0  0  0  0  0  0  0  0
   -1.2642  -54.6378  -24.3268 N   0  0  0  0  0  0  0  0  0  0  0  0
   -1.2370  -55.0642  -23.0511 C   0  0  0  0  0  0  0  0  0  0  0  0
   -0.4857  -54.3587  -22.2031 N   0  0  0  0  0  0  0  0  0  0  0  0
    0.2287  -53.2814  -22.5166 C   0  0  0  0  0  0  0  0  0  0  0  0
    0.1838  -52.8659  -23.8285 C   0  0  0  0  0  0  0  0  0  0  0  0
    0.8629  -51.7762  -24.3131 C   0  0  0  0  0  0  0  0  0  0  0  0
   -1.0198  -51.7421  -15.3127 C   0  0  0  0  0  0  0  0  0  0  0  0
   -2.0670  -50.7001  -15.2499 C   0  0  0  0  0  0  0  0  0  0  0  0
   -3.3849  -51.0824  -15.3444 C   0  0  0  0  0  0  0  0  0  0  0  0
   -4.4299  -50.1992  -15.2933 C   0  0  0  0  0  0  0  0  0  0  0  0
   -4.1525  -48.8586  -15.1395 C   0  0  0  0  0  0  0  0  0  0  0  0
   -2.8351  -48.4660  -15.0439 C   0  0  0  0  0  0  0  0  0  0  0  0
   -2.4743  -46.7694  -14.8488 Cl  0  0  0  0  0  0  0  0  0  0  0  0
   -1.7786  -49.3686  -15.0964 C   0  0  0  0  0  0  0  0  0  0  0  0
 12 13  1  0  0  0
 13 14  2  0  0  0
 14 15  1  0  0  0
 15 16  2  0  0  0
 16 17  1  0  0  0
 17 18  2  0  0  0
 18 19  1  0  0  0
 19 20  2  0  0  0
 20 10  1  0  0  0
 10  1  1  0  0  0
  1  2  2  0  0  0
  2  3  1  0  0  0
  3  4  2  0  0  0
  4  5  1  0  0  0
  5 23  1  0  0  0
 23 24  1  0  0  0
 24 25  2  0  0  0
 25 26  1  0  0  0
 26 27  2  0  0  0
 27 28  1  0  0  0
 28 29  1  0  0  0
 28 30  2  0  0  0
  5  6  1  0  0  0
  6  7  2  0  0  0
  7  8  1  0  0  0
  8  9  2  0  0  0
 20 21  1  0  0  0
 21 22  2  0  0  0
 22 13  1  0  0  0
 21 16  1  0  0  0
  9  1  1  0  0  0
  8  4  1  0  0  0
 30 24  1  0  0  0
 10 11  1  0  0  0
M  END
> <minimizedAffinity>
-8.69500

> <CNNscore>
0.6237984300

> <CNNaffinity>
6.9228897095

> <CNN_VS>
4.3184876442

> <CNNaffinity_variance>
0.2198837250

$$$$
[H]c1nc(N([H])c2c([H])c([H])c3c(c([H])nn3C([H])([H])c3c([H])c([H])c([H])c(Cl)c3[H])c2[H])c2c([H])c(F)c([H])c([H])c2n1


 30 34  0  0  0  0  0  0  0  0999 V2000
   -0.5141  -52.5096  -22.0826 C   0  0  0  0  0  0  0  0  0  0  0  0
   -1.0508  -53.4653  -21.2784 C   0  0  0  0  0  0  0  0  0  0  0  0
   -1.0086  -53.3464  -19.8926 C   0  0  0  0  0  0  0  0  0  0  0  0
   -0.4114  -52.2403  -19.3333 C   0  0  0  0  0  0  0  0  0  0  0  0
   -0.2142  -51.8390  -18.0611 N   0  0  0  0  0  0  0  0  0  0  0  0
    0.4112  -50.6969  -18.0703 N   0  0  0  0  0  0  0  0  0  0  0  0
    0.6505  -50.3005  -19.3248 C   0  0  0  0  0  0  0  0  0  0  0  0
    0.1266  -51.2846  -20.1633 C   0  0  0  0  0  0  0  0  0  0  0  0
    0.1043  -51.3664  -21.5381 C   0  0  0  0  0  0  0  0  0  0  0  0
   -0.5848  -52.6122  -23.4922 N   0  0  0  0  0  0  0  0  0  0  0  0
   -1.5944  -52.5605  -23.8608 H   0  0  0  0  0  0  0  0  0  0  0  0
   -2.4876  -52.4384  -28.2105 F   0  0  0  0  0  0  0  0  0  0  0  0
   -1.2423  -52.6065  -27.6981 C   0  0  0  0  0  0  0  0  0  0  0  0
   -0.1862  -52.7862  -28.5599 C   0  0  0  0  0  0  0  0  0  0  0  0
    1.0742  -52.9556  -28.0180 C   0  0  0  0  0  0  0  0  0  0  0  0
    1.2882  -52.9478  -26.6566 C   0  0  0  0  0  0  0  0  0  0  0  0
    2.5158  -53.1120  -26.1405 N   0  0  0  0  0  0  0  0  0  0  0  0
    2.7729  -53.1107  -24.8199 C   0  0  0  0  0  0  0  0  0  0  0  0
    1.7272  -52.9342  -24.0096 N   0  0  0  0  0  0  0  0  0  0  0  0
    0.4676  -52.7617  -24.4004 C   0  0  0  0  0  0  0  0  0  0  0  0
    0.2314  -52.7670  -25.7568 C   0  0  0  0  0  0  0  0  0  0  0  0
   -1.0085  -52.6012  -26.3216 C   0  0  0  0  0  0  0  0  0  0  0  0
   -0.6329  -52.5725  -16.8764 C   0  0  0  0  0  0  0  0  0  0  0  0
   -1.9259  -52.0135  -16.4272 C   0  0  0  0  0  0  0  0  0  0  0  0
   -3.0803  -52.7004  -16.7232 C   0  0  0  0  0  0  0  0  0  0  0  0
   -4.3265  -52.2730  -16.3505 C   0  0  0  0  0  0  0  0  0  0  0  0
   -4.4351  -51.0959  -15.6430 C   0  0  0  0  0  0  0  0  0  0  0  0
   -3.2841  -50.4007  -15.3417 C   0  0  0  0  0  0  0  0  0  0  0  0
   -3.4121  -48.9083  -14.4456 Cl  0  0  0  0  0  0  0  0  0  0  0  0
   -2.0214  -50.8409  -15.7234 C   0  0  0  0  0  0  0  0  0  0  0  0
 12 13  1  0  0  0
 13 14  2  0  0  0
 14 15  1  0  0  0
 15 16  2  0  0  0
 16 17  1  0  0  0
 17 18  2  0  0  0
 18 19  1  0  0  0
 19 20  2  0  0  0
 20 10  1  0  0  0
 10  1  1  0  0  0
  1  2  2  0  0  0
  2  3  1  0  0  0
  3  4  2  0  0  0
  4  5  1  0  0  0
  5 23  1  0  0  0
 23 24  1  0  0  0
 24 25  2  0  0  0
 25 26  1  0  0  0
 26 27  2  0  0  0
 27 28  1  0  0  0
 28 29  1  0  0  0
 28 30  2  0  0  0
  5  6  1  0  0  0
  6  7  2  0  0  0
  7  8  1  0  0  0
  8  9  2  0  0  0
 20 21  1  0  0  0
 21 22  2  0  0  0
 22 13  1  0  0  0
 21 16  1  0  0  0
  9  1  1  0  0  0
  8  4  1  0  0  0
 30 24  1  0  0  0
 10 11  1  0  0  0
M  END
> <minimizedAffinity>
-9.92857

> <CNNscore>
0.5309338570

> <CNNaffinity>
6.9854993820

> <CNN_VS>
3.7088382244

> <CNNaffinity_variance>
0.0972532853

$$$$
[H]c1nc(N([H])c2c([H])c([H])c3c(c([H])nn3C([H])([H])c3c([H])c([H])c([H])c(Cl)c3[H])c2[H])c2c([H])c(F)c([H])c([H])c2n1


 30 34  0  0  0  0  0  0  0  0999 V2000
   -0.3584  -53.1817  -20.1307 C   0  0  0  0  0  0  0  0  0  0  0  0
   -0.1071  -52.0077  -20.7684 C   0  0  0  0  0  0  0  0  0  0  0  0
   -0.2049  -51.9057  -22.1528 C   0  0  0  0  0  0  0  0  0  0  0  0
   -0.5618  -53.0161  -22.8825 C   0  0  0  0  0  0  0  0  0  0  0  0
   -0.7405  -53.2391  -24.2004 N   0  0  0  0  0  0  0  0  0  0  0  0
   -1.0836  -54.4830  -24.3758 N   0  0  0  0  0  0  0  0  0  0  0  0
   -1.1456  -55.1247  -23.2042 C   0  0  0  0  0  0  0  0  0  0  0  0
   -0.8114  -54.1949  -22.2194 C   0  0  0  0  0  0  0  0  0  0  0  0
   -0.7255  -54.3353  -20.8518 C   0  0  0  0  0  0  0  0  0  0  0  0
   -0.2918  -53.2796  -18.7204 N   0  0  0  0  0  0  0  0  0  0  0  0
    0.5081  -53.9175  -18.3872 H   0  0  0  0  0  0  0  0  0  0  0  0
    2.0601  -49.0929  -17.0314 F   0  0  0  0  0  0  0  0  0  0  0  0
    0.8768  -49.6931  -16.7471 C   0  0  0  0  0  0  0  0  0  0  0  0
    0.0554  -49.1305  -15.7989 C   0  0  0  0  0  0  0  0  0  0  0  0
   -1.1457  -49.7574  -15.5240 C   0  0  0  0  0  0  0  0  0  0  0  0
   -1.5281  -50.9132  -16.1698 C   0  0  0  0  0  0  0  0  0  0  0  0
   -2.6965  -51.5134  -15.8965 N   0  0  0  0  0  0  0  0  0  0  0  0
   -3.1120  -52.6410  -16.5014 C   0  0  0  0  0  0  0  0  0  0  0  0
   -2.2927  -53.1627  -17.4167 N   0  0  0  0  0  0  0  0  0  0  0  0
   -1.1132  -52.6615  -17.7728 C   0  0  0  0  0  0  0  0  0  0  0  0
   -0.7114  -51.5071  -17.1391 C   0  0  0  0  0  0  0  0  0  0  0  0
    0.4745  -50.8643  -17.3923 C   0  0  0  0  0  0  0  0  0  0  0  0
   -0.5711  -52.2452  -25.2492 C   0  0  0  0  0  0  0  0  0  0  0  0
    0.7711  -52.4307  -25.8409 C   0  0  0  0  0  0  0  0  0  0  0  0
    0.8670  -52.7154  -27.1833 C   0  0  0  0  0  0  0  0  0  0  0  0
    2.0597  -52.9009  -27.8295 C   0  0  0  0  0  0  0  0  0  0  0  0
    3.2257  -52.7982  -27.1031 C   0  0  0  0  0  0  0  0  0  0  0  0
    3.1397  -52.5131  -25.7576 C   0  0  0  0  0  0  0  0  0  0  0  0
    4.6119  -52.3811  -24.8292 Cl  0  0  0  0  0  0  0  0  0  0  0  0
    1.9247  -52.3258  -25.1076 C   0  0  0  0  0  0  0  0  0  0  0  0
 12 13  1  0  0  0
 13 14  2  0  0  0
 14 15  1  0  0  0
 15 16  2  0  0  0
 16 17  1  0  0  0
 17 18  2  0  0  0
 18 19  1  0  0  0
 19 20  2  0  0  0
 20 10  1  0  0  0
 10  1  1  0  0  0
  1  2  2  0  0  0
  2  3  1  0  0  0
  3  4  2  0  0  0
  4  5  1  0  0  0
  5 23  1  0  0  0
 23 24  1  0  0  0
 24 25  2  0  0  0
 25 26  1  0  0  0
 26 27  2  0  0  0
 27 28  1  0  0  0
 28 29  1  0  0  0
 28 30  2  0  0  0
  5  6  1  0  0  0
  6  7  2  0  0  0
  7  8  1  0  0  0
  8  9  2  0  0  0
 20 21  1  0  0  0
 21 22  2  0  0  0
 22 13  1  0  0  0
 21 16  1  0  0  0
  9  1  1  0  0  0
  8  4  1  0  0  0
 30 24  1  0  0  0
 10 11  1  0  0  0
M  END
> <minimizedAffinity>
-9.16054

> <CNNscore>
0.4148082435

> <CNNaffinity>
6.8007087708

> <CNN_VS>
2.8209900856

> <CNNaffinity_variance>
0.1131067127

$$$$
[H]c1nc(N([H])c2c([H])c([H])c3c(c([H])nn3C([H])([H])c3c([H])c([H])c([H])c(Cl)c3[H])c2[H])c2c([H])c(F)c([H])c([H])c2n1


 30 34  0  0  0  0  0  0  0  0999 V2000
   -0.0635  -52.0037  -21.7464 C   0  0  0  0  0  0  0  0  0  0  0  0
   -0.3513  -52.8907  -20.7572 C   0  0  0  0  0  0  0  0  0  0  0  0
   -0.1581  -52.5633  -19.4186 C   0  0  0  0  0  0  0  0  0  0  0  0
    0.3336  -51.3191  -19.0979 C   0  0  0  0  0  0  0  0  0  0  0  0
    0.6236  -50.7117  -17.9293 N   0  0  0  0  0  0  0  0  0  0  0  0
    1.0682  -49.5127  -18.1751 N   0  0  0  0  0  0  0  0  0  0  0  0
    1.0914  -49.2791  -19.4916 C   0  0  0  0  0  0  0  0  0  0  0  0
    0.6196  -50.4358  -20.1125 C   0  0  0  0  0  0  0  0  0  0  0  0
    0.4417  -50.7226  -21.4480 C   0  0  0  0  0  0  0  0  0  0  0  0
   -0.2901  -52.3223  -23.1065 N   0  0  0  0  0  0  0  0  0  0  0  0
   -1.3368  -52.3786  -23.3495 H   0  0  0  0  0  0  0  0  0  0  0  0
   -2.6618  -52.2936  -27.6106 F   0  0  0  0  0  0  0  0  0  0  0  0
   -1.3767  -52.4855  -27.2192 C   0  0  0  0  0  0  0  0  0  0  0  0
   -0.4216  -52.7452  -28.1735 C   0  0  0  0  0  0  0  0  0  0  0  0
    0.8816  -52.9377  -27.7542 C   0  0  0  0  0  0  0  0  0  0  0  0
    1.2348  -52.8753  -26.4235 C   0  0  0  0  0  0  0  0  0  0  0  0
    2.5028  -53.0625  -26.0269 N   0  0  0  0  0  0  0  0  0  0  0  0
    2.8944  -53.0102  -24.7408 C   0  0  0  0  0  0  0  0  0  0  0  0
    1.9442  -52.7564  -23.8386 N   0  0  0  0  0  0  0  0  0  0  0  0
    0.6576  -52.5539  -24.1080 C   0  0  0  0  0  0  0  0  0  0  0  0
    0.2829  -52.6127  -25.4315 C   0  0  0  0  0  0  0  0  0  0  0  0
   -1.0023  -52.4257  -25.8754 C   0  0  0  0  0  0  0  0  0  0  0  0
    0.4654  -51.3092  -16.6122 C   0  0  0  0  0  0  0  0  0  0  0  0
   -0.9183  -51.0532  -16.1584 C   0  0  0  0  0  0  0  0  0  0  0  0
   -1.1992  -49.8574  -15.5393 C   0  0  0  0  0  0  0  0  0  0  0  0
   -2.4463  -49.5198  -15.0859 C   0  0  0  0  0  0  0  0  0  0  0  0
   -3.4752  -50.4198  -15.2562 C   0  0  0  0  0  0  0  0  0  0  0  0
   -3.2035  -51.6205  -15.8755 C   0  0  0  0  0  0  0  0  0  0  0  0
   -4.5011  -52.7669  -16.0955 Cl  0  0  0  0  0  0  0  0  0  0  0  0
   -1.9343  -51.9569  -16.3336 C   0  0  0  0  0  0  0  0  0  0  0  0
 12 13  1  0  0  0
 13 14  2  0  0  0
 14 15  1  0  0  0
 15 16  2  0  0  0
 16 17  1  0  0  0
 17 18  2  0  0  0
 18 19  1  0  0  0
 19 20  2  0  0  0
 20 10  1  0  0  0
 10  1  1  0  0  0
  1  2  2  0  0  0
  2  3  1  0  0  0
  3  4  2  0  0  0
  4  5  1  0  0  0
  5 23  1  0  0  0
 23 24  1  0  0  0
 24 25  2  0  0  0
 25 26  1  0  0  0
 26 27  2  0  0  0
 27 28  1  0  0  0
 28 29  1  0  0  0
 28 30  2  0  0  0
  5  6  1  0  0  0
  6  7  2  0  0  0
  7  8  1  0  0  0
  8  9  2  0  0  0
 20 21  1  0  0  0
 21 22  2  0  0  0
 22 13  1  0  0  0
 21 16  1  0  0  0
  9  1  1  0  0  0
  8  4  1  0  0  0
 30 24  1  0  0  0
 10 11  1  0  0  0
M  END
> <minimizedAffinity>
-9.47173

> <CNNscore>
0.4106225073

> <CNNaffinity>
6.8960161209

> <CNN_VS>
2.8316593170

> <CNNaffinity_variance>
0.1465696096

$$$$
[H]c1nc(N([H])c2c([H])c([H])c3c(c([H])nn3C([H])([H])c3c([H])c([H])c([H])c(Cl)c3[H])c2[H])c2c([H])c(F)c([H])c([H])c2n1


 30 34  0  0  0  0  0  0  0  0999 V2000
   -0.2504  -53.1814  -22.2078 C   0  0  0  0  0  0  0  0  0  0  0  0
   -0.1638  -53.9229  -21.0717 C   0  0  0  0  0  0  0  0  0  0  0  0
    0.0993  -53.3272  -19.8420 C   0  0  0  0  0  0  0  0  0  0  0  0
    0.2744  -51.9639  -19.7822 C   0  0  0  0  0  0  0  0  0  0  0  0
    0.5334  -51.1076  -18.7731 N   0  0  0  0  0  0  0  0  0  0  0  0
    0.6051  -49.8989  -19.2525 N   0  0  0  0  0  0  0  0  0  0  0  0
    0.4007  -49.9029  -20.5740 C   0  0  0  0  0  0  0  0  0  0  0  0
    0.1838  -51.2308  -20.9423 C   0  0  0  0  0  0  0  0  0  0  0  0
   -0.0752  -51.7835  -22.1771 C   0  0  0  0  0  0  0  0  0  0  0  0
   -0.5504  -53.7807  -23.4542 N   0  0  0  0  0  0  0  0  0  0  0  0
   -1.0344  -54.7359  -23.3483 H   0  0  0  0  0  0  0  0  0  0  0  0
    4.4615  -53.0307  -23.9342 F   0  0  0  0  0  0  0  0  0  0  0  0
    3.3936  -52.8371  -24.7488 C   0  0  0  0  0  0  0  0  0  0  0  0
    3.5999  -52.3190  -26.0055 C   0  0  0  0  0  0  0  0  0  0  0  0
    2.4989  -52.1295  -26.8199 C   0  0  0  0  0  0  0  0  0  0  0  0
    1.2232  -52.4440  -26.4040 C   0  0  0  0  0  0  0  0  0  0  0  0
    0.1612  -52.2573  -27.2025 N   0  0  0  0  0  0  0  0  0  0  0  0
   -1.1011  -52.5501  -26.8406 C   0  0  0  0  0  0  0  0  0  0  0  0
   -1.2684  -53.0512  -25.6150 N   0  0  0  0  0  0  0  0  0  0  0  0
   -0.2977  -53.2807  -24.7352 C   0  0  0  0  0  0  0  0  0  0  0  0
    0.9848  -52.9727  -25.1301 C   0  0  0  0  0  0  0  0  0  0  0  0
    2.0949  -53.1504  -24.3429 C   0  0  0  0  0  0  0  0  0  0  0  0
    0.7067  -51.4835  -17.3784 C   0  0  0  0  0  0  0  0  0  0  0  0
   -0.5833  -51.2761  -16.6863 C   0  0  0  0  0  0  0  0  0  0  0  0
   -0.7561  -50.1329  -15.9411 C   0  0  0  0  0  0  0  0  0  0  0  0
   -1.9112  -49.8427  -15.2658 C   0  0  0  0  0  0  0  0  0  0  0  0
   -2.9563  -50.7378  -15.3328 C   0  0  0  0  0  0  0  0  0  0  0  0
   -2.7925  -51.8859  -16.0770 C   0  0  0  0  0  0  0  0  0  0  0  0
   -4.1114  -53.0257  -16.1677 Cl  0  0  0  0  0  0  0  0  0  0  0  0
   -1.6164  -52.1743  -16.7607 C   0  0  0  0  0  0  0  0  0  0  0  0
 12 13  1  0  0  0
 13 14  2  0  0  0
 14 15  1  0  0  0
 15 16  2  0  0  0
 16 17  1  0  0  0
 17 18  2  0  0  0
 18 19  1  0  0  0
 19 20  2  0  0  0
 20 10  1  0  0  0
 10  1  1  0  0  0
  1  2  2  0  0  0
  2  3  1  0  0  0
  3  4  2  0  0  0
  4  5  1  0  0  0
  5 23  1  0  0  0
 23 24  1  0  0  0
 24 25  2  0  0  0
 25 26  1  0  0  0
 26 27  2  0  0  0
 27 28  1  0  0  0
 28 29  1  0  0  0
 28 30  2  0  0  0
  5  6  1  0  0  0
  6  7  2  0  0  0
  7  8  1  0  0  0
  8  9  2  0  0  0
 20 21  1  0  0  0
 21 22  2  0  0  0
 22 13  1  0  0  0
 21 16  1  0  0  0
  9  1  1  0  0  0
  8  4  1  0  0  0
 30 24  1  0  0  0
 10 11  1  0  0  0
M  END
> <minimizedAffinity>
-8.91866

> <CNNscore>
0.3699465394

> <CNNaffinity>
6.8117394447

> <CNN_VS>
2.5199794769

> <CNNaffinity_variance>
0.0899523348

$$$$
[H]c1nc(N([H])c2c([H])c([H])c3c(c([H])nn3C([H])([H])c3c([H])c([H])c([H])c(Cl)c3[H])c2[H])c2c([H])c(F)c([H])c([H])c2n1


 30 34  0  0  0  0  0  0  0  0999 V2000
    0.3186  -52.7904  -23.3006 C   0  0  0  0  0  0  0  0  0  0  0  0
    0.8780  -51.5522  -23.2554 C   0  0  0  0  0  0  0  0  0  0  0  0
    0.9914  -50.8574  -22.0550 C   0  0  0  0  0  0  0  0  0  0  0  0
    0.5269  -51.4391  -20.8981 C   0  0  0  0  0  0  0  0  0  0  0  0
    0.4919  -51.0393  -19.6107 N   0  0  0  0  0  0  0  0  0  0  0  0
   -0.0591  -51.9753  -18.8923 N   0  0  0  0  0  0  0  0  0  0  0  0
   -0.4060  -53.0150  -19.6583 C   0  0  0  0  0  0  0  0  0  0  0  0
   -0.0365  -52.6921  -20.9642 C   0  0  0  0  0  0  0  0  0  0  0  0
   -0.1661  -53.4109  -22.1320 C   0  0  0  0  0  0  0  0  0  0  0  0
    0.2320  -53.5126  -24.5146 N   0  0  0  0  0  0  0  0  0  0  0  0
   -0.4446  -54.3470  -24.4524 H   0  0  0  0  0  0  0  0  0  0  0  0
   -3.2449  -52.7203  -28.1472 F   0  0  0  0  0  0  0  0  0  0  0  0
   -1.8883  -52.7480  -28.1259 C   0  0  0  0  0  0  0  0  0  0  0  0
   -1.1993  -52.5339  -29.2962 C   0  0  0  0  0  0  0  0  0  0  0  0
    0.1821  -52.5661  -29.2532 C   0  0  0  0  0  0  0  0  0  0  0  0
    0.8685  -52.8042  -28.0820 C   0  0  0  0  0  0  0  0  0  0  0  0
    2.2095  -52.8324  -28.0506 N   0  0  0  0  0  0  0  0  0  0  0  0
    2.9219  -53.0597  -26.9321 C   0  0  0  0  0  0  0  0  0  0  0  0
    2.2244  -53.2640  -25.8128 N   0  0  0  0  0  0  0  0  0  0  0  0
    0.8977  -53.2605  -25.7179 C   0  0  0  0  0  0  0  0  0  0  0  0
    0.1923  -53.0253  -26.8766 C   0  0  0  0  0  0  0  0  0  0  0  0
   -1.1778  -52.9878  -26.9480 C   0  0  0  0  0  0  0  0  0  0  0  0
    0.9885  -49.7648  -19.1151 C   0  0  0  0  0  0  0  0  0  0  0  0
    1.2849  -49.9197  -17.6748 C   0  0  0  0  0  0  0  0  0  0  0  0
    0.4392  -49.3359  -16.7604 C   0  0  0  0  0  0  0  0  0  0  0  0
    0.6204  -49.4225  -15.4061 C   0  0  0  0  0  0  0  0  0  0  0  0
    1.7029  -50.1289  -14.9299 C   0  0  0  0  0  0  0  0  0  0  0  0
    2.5558  -50.7174  -15.8384 C   0  0  0  0  0  0  0  0  0  0  0  0
    3.9301  -51.6144  -15.2442 Cl  0  0  0  0  0  0  0  0  0  0  0  0
    2.3657  -50.6255  -17.2129 C   0  0  0  0  0  0  0  0  0  0  0  0
 12 13  1  0  0  0
 13 14  2  0  0  0
 14 15  1  0  0  0
 15 16  2  0  0  0
 16 17  1  0  0  0
 17 18  2  0  0  0
 18 19  1  0  0  0
 19 20  2  0  0  0
 20 10  1  0  0  0
 10  1  1  0  0  0
  1  2  2  0  0  0
  2  3  1  0  0  0
  3  4  2  0  0  0
  4  5  1  0  0  0
  5 23  1  0  0  0
 23 24  1  0  0  0
 24 25  2  0  0  0
 25 26  1  0  0  0
 26 27  2  0  0  0
 27 28  1  0  0  0
 28 29  1  0  0  0
 28 30  2  0  0  0
  5  6  1  0  0  0
  6  7  2  0  0  0
  7  8  1  0  0  0
  8  9  2  0  0  0
 20 21  1  0  0  0
 21 22  2  0  0  0
 22 13  1  0  0  0
 21 16  1  0  0  0
  9  1  1  0  0  0
  8  4  1  0  0  0
 30 24  1  0  0  0
 10 11  1  0  0  0
M  END
> <minimizedAffinity>
-9.09323

> <CNNscore>
0.3077319562

> <CNNaffinity>
6.7944688797

> <CNN_VS>
2.0908751488

> <CNNaffinity_variance>
0.0672920197

$$$$
[H]c1nc(N([H])c2c([H])c([H])c3c(c([H])nn3C([H])([H])c3c([H])c([H])c([H])c(Cl)c3[H])c2[H])c2c([H])c(F)c([H])c([H])c2n1


 30 34  0  0  0  0  0  0  0  0999 V2000
   -0.5145  -53.1142  -20.0201 C   0  0  0  0  0  0  0  0  0  0  0  0
   -0.2300  -51.9342  -20.6324 C   0  0  0  0  0  0  0  0  0  0  0  0
   -0.2623  -51.8168  -22.0186 C   0  0  0  0  0  0  0  0  0  0  0  0
   -0.5877  -52.9179  -22.7765 C   0  0  0  0  0  0  0  0  0  0  0  0
   -0.7048  -53.1260  -24.1037 N   0  0  0  0  0  0  0  0  0  0  0  0
   -1.0429  -54.3667  -24.3088 N   0  0  0  0  0  0  0  0  0  0  0  0
   -1.1618  -55.0209  -23.1486 C   0  0  0  0  0  0  0  0  0  0  0  0
   -0.8716  -54.1030  -22.1389 C   0  0  0  0  0  0  0  0  0  0  0  0
   -0.8507  -54.2586  -20.7705 C   0  0  0  0  0  0  0  0  0  0  0  0
   -0.5146  -53.2277  -18.6095 N   0  0  0  0  0  0  0  0  0  0  0  0
   -0.4202  -54.2464  -18.2762 H   0  0  0  0  0  0  0  0  0  0  0  0
   -5.0145  -53.6382  -16.2653 F   0  0  0  0  0  0  0  0  0  0  0  0
   -3.9710  -52.7764  -16.1658 C   0  0  0  0  0  0  0  0  0  0  0  0
   -4.0466  -51.7401  -15.2654 C   0  0  0  0  0  0  0  0  0  0  0  0
   -2.9730  -50.8734  -15.1793 C   0  0  0  0  0  0  0  0  0  0  0  0
   -1.8502  -51.0253  -15.9638 C   0  0  0  0  0  0  0  0  0  0  0  0
   -0.8130  -50.1792  -15.8719 N   0  0  0  0  0  0  0  0  0  0  0  0
    0.3030  -50.2882  -16.6154 C   0  0  0  0  0  0  0  0  0  0  0  0
    0.3459  -51.3040  -17.4800 N   0  0  0  0  0  0  0  0  0  0  0  0
   -0.6156  -52.2049  -17.6616 C   0  0  0  0  0  0  0  0  0  0  0  0
   -1.7469  -52.0711  -16.8884 C   0  0  0  0  0  0  0  0  0  0  0  0
   -2.8263  -52.9162  -16.9531 C   0  0  0  0  0  0  0  0  0  0  0  0
   -0.4833  -52.1213  -25.1324 C   0  0  0  0  0  0  0  0  0  0  0  0
    0.8502  -52.3608  -25.7243 C   0  0  0  0  0  0  0  0  0  0  0  0
    0.9316  -52.6826  -27.0592 C   0  0  0  0  0  0  0  0  0  0  0  0
    2.1154  -52.9192  -27.7051 C   0  0  0  0  0  0  0  0  0  0  0  0
    3.2872  -52.8317  -26.9861 C   0  0  0  0  0  0  0  0  0  0  0  0
    3.2158  -52.5098  -25.6481 C   0  0  0  0  0  0  0  0  0  0  0  0
    4.6955  -52.3968  -24.7292 Cl  0  0  0  0  0  0  0  0  0  0  0  0
    2.0098  -52.2707  -24.9984 C   0  0  0  0  0  0  0  0  0  0  0  0
 12 13  1  0  0  0
 13 14  2  0  0  0
 14 15  1  0  0  0
 15 16  2  0  0  0
 16 17  1  0  0  0
 17 18  2  0  0  0
 18 19  1  0  0  0
 19 20  2  0  0  0
 20 10  1  0  0  0
 10  1  1  0  0  0
  1  2  2  0  0  0
  2  3  1  0  0  0
  3  4  2  0  0  0
  4  5  1  0  0  0
  5 23  1  0  0  0
 23 24  1  0  0  0
 24 25  2  0  0  0
 25 26  1  0  0  0
 26 27  2  0  0  0
 27 28  1  0  0  0
 28 29  1  0  0  0
 28 30  2  0  0  0
  5  6  1  0  0  0
  6  7  2  0  0  0
  7  8  1  0  0  0
  8  9  2  0  0  0
 20 21  1  0  0  0
 21 22  2  0  0  0
 22 13  1  0  0  0
 21 16  1  0  0  0
  9  1  1  0  0  0
  8  4  1  0  0  0
 30 24  1  0  0  0
 10 11  1  0  0  0
M  END
> <minimizedAffinity>
-9.45573

> <CNNscore>
0.2898372114

> <CNNaffinity>
6.6034383774

> <CNN_VS>
1.9139221907

> <CNNaffinity_variance>
0.1247807145

$$$$
[H]c1nc2c([H])c([H])n([H])c2c(Oc2c([H])c([H])c(N([H])C(=O)N([H])c3c([H])c([H])c(Cl)c(Cl)c3[H])c([H])c2Cl)c1[H]


 32 35  0  0  0  0  0  0  0  0999 V2000
    0.7846  -52.2142  -20.2942 C   0  0  0  0  0  0  0  0  0  0  0  0
   -0.1007  -53.1289  -19.7159 C   0  0  0  0  0  0  0  0  0  0  0  0
   -0.6515  -52.8780  -18.4852 C   0  0  0  0  0  0  0  0  0  0  0  0
   -0.3672  -51.7214  -17.7551 C   0  0  0  0  0  0  0  0  0  0  0  0
    0.5301  -50.8182  -18.3679 C   0  0  0  0  0  0  0  0  0  0  0  0
    0.9417  -49.3386  -17.5177 Cl  0  0  0  0  0  0  0  0  0  0  0  0
    1.0833  -51.0685  -19.6027 C   0  0  0  0  0  0  0  0  0  0  0  0
    1.2414  -52.8164  -23.9550 N   0  0  0  0  0  0  0  0  0  0  0  0
    0.5611  -52.4172  -22.7842 C   0  0  0  0  0  0  0  0  0  0  0  0
   -0.5891  -51.9748  -22.7414 O   0  0  0  0  0  0  0  0  0  0  0  0
    1.2778  -52.5426  -21.5579 N   0  0  0  0  0  0  0  0  0  0  0  0
    2.2355  -53.1801  -23.8409 H   0  0  0  0  0  0  0  0  0  0  0  0
    2.2822  -52.9259  -21.5926 H   0  0  0  0  0  0  0  0  0  0  0  0
   -0.6825  -52.6680  -29.6303 Cl  0  0  0  0  0  0  0  0  0  0  0  0
   -0.1620  -52.7057  -27.9546 C   0  0  0  0  0  0  0  0  0  0  0  0
    1.1580  -52.9281  -27.6381 C   0  0  0  0  0  0  0  0  0  0  0  0
    1.6104  -52.9659  -26.3428 C   0  0  0  0  0  0  0  0  0  0  0  0
    0.7243  -52.7746  -25.2606 C   0  0  0  0  0  0  0  0  0  0  0  0
   -0.5865  -52.5541  -25.5871 C   0  0  0  0  0  0  0  0  0  0  0  0
   -1.0430  -52.5167  -26.9191 C   0  0  0  0  0  0  0  0  0  0  0  0
   -2.7255  -52.2328  -27.3022 Cl  0  0  0  0  0  0  0  0  0  0  0  0
   -0.8398  -51.3829  -16.5675 O   0  0  0  0  0  0  0  0  0  0  0  0
   -1.8515  -50.9219  -15.8663 C   0  0  0  0  0  0  0  0  0  0  0  0
   -1.9142  -49.6969  -15.2530 C   0  0  0  0  0  0  0  0  0  0  0  0
   -3.0357  -49.2780  -14.5197 C   0  0  0  0  0  0  0  0  0  0  0  0
   -4.0930  -50.0832  -14.4000 N   0  0  0  0  0  0  0  0  0  0  0  0
   -4.0857  -51.2905  -14.9784 C   0  0  0  0  0  0  0  0  0  0  0  0
   -5.0856  -52.2586  -14.9635 C   0  0  0  0  0  0  0  0  0  0  0  0
   -4.5684  -53.2911  -15.7013 C   0  0  0  0  0  0  0  0  0  0  0  0
   -3.3164  -52.9549  -16.1372 N   0  0  0  0  0  0  0  0  0  0  0  0
   -3.0124  -51.7275  -15.6974 C   0  0  0  0  0  0  0  0  0  0  0  0
   -2.7044  -53.5546  -16.7143 H   0  0  0  0  0  0  0  0  0  0  0  0
 14 15  1  0  0  0
 15 16  2  0  0  0
 16 17  1  0  0  0
 17 18  2  0  0  0
 18  8  1  0  0  0
  8  9  1  0  0  0
  9 10  2  0  0  0
  9 11  1  0  0  0
 11  1  1  0  0  0
  1  2  2  0  0  0
  2  3  1  0  0  0
  3  4  2  0  0  0
  4 22  1  0  0  0
 22 23  1  0  0  0
 23 24  2  0  0  0
 24 25  1  0  0  0
 25 26  2  0  0  0
 26 27  1  0  0  0
 27 28  1  0  0  0
 28 29  2  0  0  0
 29 30  1  0  0  0
 30 31  1  0  0  0
  4  5  1  0  0  0
  5  6  1  0  0  0
  5  7  2  0  0  0
 18 19  1  0  0  0
 19 20  2  0  0  0
 20 21  1  0  0  0
 20 15  1  0  0  0
  7  1  1  0  0  0
 31 23  1  0  0  0
 31 27  2  0  0  0
  8 12  1  0  0  0
 11 13  1  0  0  0
 30 32  1  0  0  0
M  END
> <minimizedAffinity>
-8.61091

> <CNNscore>
0.3729690015

> <CNNaffinity>
6.8022813797

> <CNN_VS>
2.5370399952

> <CNNaffinity_variance>
0.0437704287

$$$$
[H]c1nc2c([H])c([H])n([H])c2c(Oc2c([H])c([H])c(N([H])C(=O)N([H])c3c([H])c([H])c(Cl)c(Cl)c3[H])c([H])c2Cl)c1[H]


 32 35  0  0  0  0  0  0  0  0999 V2000
    2.9505  -50.4865  -26.1823 C   0  0  0  0  0  0  0  0  0  0  0  0
    3.3940  -50.5887  -24.8603 C   0  0  0  0  0  0  0  0  0  0  0  0
    2.5228  -50.9417  -23.8617 C   0  0  0  0  0  0  0  0  0  0  0  0
    1.1735  -51.2133  -24.1013 C   0  0  0  0  0  0  0  0  0  0  0  0
    0.7582  -51.1015  -25.4472 C   0  0  0  0  0  0  0  0  0  0  0  0
   -0.9226  -51.4261  -25.8358 Cl  0  0  0  0  0  0  0  0  0  0  0  0
    1.6313  -50.7477  -26.4503 C   0  0  0  0  0  0  0  0  0  0  0  0
    5.1734  -48.6974  -28.5970 N   0  0  0  0  0  0  0  0  0  0  0  0
    4.1592  -48.8273  -27.6235 C   0  0  0  0  0  0  0  0  0  0  0  0
    3.4806  -47.9028  -27.1704 O   0  0  0  0  0  0  0  0  0  0  0  0
    3.9118  -50.1436  -27.1342 N   0  0  0  0  0  0  0  0  0  0  0  0
    5.6793  -49.5855  -28.8950 H   0  0  0  0  0  0  0  0  0  0  0  0
    4.5041  -50.9515  -27.5259 H   0  0  0  0  0  0  0  0  0  0  0  0
    6.7852  -43.6854  -31.4630 Cl  0  0  0  0  0  0  0  0  0  0  0  0
    6.3319  -45.1364  -30.5859 C   0  0  0  0  0  0  0  0  0  0  0  0
    5.6131  -46.1317  -31.2062 C   0  0  0  0  0  0  0  0  0  0  0  0
    5.2369  -47.2829  -30.5604 C   0  0  0  0  0  0  0  0  0  0  0  0
    5.5777  -47.4985  -29.2075 C   0  0  0  0  0  0  0  0  0  0  0  0
    6.2929  -46.5018  -28.6004 C   0  0  0  0  0  0  0  0  0  0  0  0
    6.6753  -45.3232  -29.2700 C   0  0  0  0  0  0  0  0  0  0  0  0
    7.5890  -44.0684  -28.4646 Cl  0  0  0  0  0  0  0  0  0  0  0  0
    0.2531  -51.5596  -23.2173 O   0  0  0  0  0  0  0  0  0  0  0  0
   -0.3665  -52.5298  -22.5830 C   0  0  0  0  0  0  0  0  0  0  0  0
   -0.8493  -52.4737  -21.3006 C   0  0  0  0  0  0  0  0  0  0  0  0
   -1.5019  -53.5582  -20.6932 C   0  0  0  0  0  0  0  0  0  0  0  0
   -1.6714  -54.6971  -21.3675 N   0  0  0  0  0  0  0  0  0  0  0  0
   -1.2196  -54.8071  -22.6228 C   0  0  0  0  0  0  0  0  0  0  0  0
   -1.3030  -55.9044  -23.4750 C   0  0  0  0  0  0  0  0  0  0  0  0
   -0.6902  -55.4859  -24.6270 C   0  0  0  0  0  0  0  0  0  0  0  0
   -0.2603  -54.1970  -24.4701 N   0  0  0  0  0  0  0  0  0  0  0  0
   -0.5816  -53.7727  -23.2417 C   0  0  0  0  0  0  0  0  0  0  0  0
    0.2336  -53.6412  -25.1873 H   0  0  0  0  0  0  0  0  0  0  0  0
 14 15  1  0  0  0
 15 16  2  0  0  0
 16 17  1  0  0  0
 17 18  2  0  0  0
 18  8  1  0  0  0
  8  9  1  0  0  0
  9 10  2  0  0  0
  9 11  1  0  0  0
 11  1  1  0  0  0
  1  2  2  0  0  0
  2  3  1  0  0  0
  3  4  2  0  0  0
  4 22  1  0  0  0
 22 23  1  0  0  0
 23 24  2  0  0  0
 24 25  1  0  0  0
 25 26  2  0  0  0
 26 27  1  0  0  0
 27 28  1  0  0  0
 28 29  2  0  0  0
 29 30  1  0  0  0
 30 31  1  0  0  0
  4  5  1  0  0  0
  5  6  1  0  0  0
  5  7  2  0  0  0
 18 19  1  0  0  0
 19 20  2  0  0  0
 20 21  1  0  0  0
 20 15  1  0  0  0
  7  1  1  0  0  0
 31 23  1  0  0  0
 31 27  2  0  0  0
  8 12  1  0  0  0
 11 13  1  0  0  0
 30 32  1  0  0  0
M  END
> <minimizedAffinity>
-6.41774

> <CNNscore>
0.3285050392

> <CNNaffinity>
6.5168328285

> <CNN_VS>
2.1408123970

> <CNNaffinity_variance>
0.3697550297

$$$$
[H]c1nc2c([H])c([H])n([H])c2c(Oc2c([H])c([H])c(N([H])C(=O)N([H])c3c([H])c([H])c(Cl)c(Cl)c3[H])c([H])c2Cl)c1[H]


 32 35  0  0  0  0  0  0  0  0999 V2000
    0.6258  -52.0449  -20.0067 C   0  0  0  0  0  0  0  0  0  0  0  0
    1.1640  -50.9121  -19.3888 C   0  0  0  0  0  0  0  0  0  0  0  0
    0.7057  -50.5077  -18.1611 C   0  0  0  0  0  0  0  0  0  0  0  0
   -0.3017  -51.1880  -17.4725 C   0  0  0  0  0  0  0  0  0  0  0  0
   -0.8234  -52.3281  -18.1241 C   0  0  0  0  0  0  0  0  0  0  0  0
   -2.0933  -53.2415  -17.3275 Cl  0  0  0  0  0  0  0  0  0  0  0  0
   -0.3642  -52.7351  -19.3558 C   0  0  0  0  0  0  0  0  0  0  0  0
    1.2232  -52.7227  -23.6338 N   0  0  0  0  0  0  0  0  0  0  0  0
    0.4951  -52.3084  -22.4976 C   0  0  0  0  0  0  0  0  0  0  0  0
   -0.6629  -51.8846  -22.5059 O   0  0  0  0  0  0  0  0  0  0  0  0
    1.1692  -52.3936  -21.2440 N   0  0  0  0  0  0  0  0  0  0  0  0
    2.2183  -53.0668  -23.4761 H   0  0  0  0  0  0  0  0  0  0  0  0
    2.1803  -52.7606  -21.2341 H   0  0  0  0  0  0  0  0  0  0  0  0
   -0.4996  -52.7497  -29.3753 Cl  0  0  0  0  0  0  0  0  0  0  0  0
   -0.0382  -52.7344  -27.6820 C   0  0  0  0  0  0  0  0  0  0  0  0
    1.2637  -52.9774  -27.3106 C   0  0  0  0  0  0  0  0  0  0  0  0
    1.6701  -52.9755  -25.9995 C   0  0  0  0  0  0  0  0  0  0  0  0
    0.7526  -52.7194  -24.9576 C   0  0  0  0  0  0  0  0  0  0  0  0
   -0.5398  -52.4788  -25.3387 C   0  0  0  0  0  0  0  0  0  0  0  0
   -0.9490  -52.4825  -26.6864 C   0  0  0  0  0  0  0  0  0  0  0  0
   -2.6092  -52.1715  -27.1395 Cl  0  0  0  0  0  0  0  0  0  0  0  0
   -0.8147  -50.8859  -16.2919 O   0  0  0  0  0  0  0  0  0  0  0  0
   -1.7206  -50.2165  -15.6143 C   0  0  0  0  0  0  0  0  0  0  0  0
   -2.8916  -50.7262  -15.1145 C   0  0  0  0  0  0  0  0  0  0  0  0
   -3.8098  -49.9418  -14.3986 C   0  0  0  0  0  0  0  0  0  0  0  0
   -3.5571  -48.6494  -14.1830 N   0  0  0  0  0  0  0  0  0  0  0  0
   -2.4289  -48.0996  -14.6486 C   0  0  0  0  0  0  0  0  0  0  0  0
   -1.9976  -46.7821  -14.5238 C   0  0  0  0  0  0  0  0  0  0  0  0
   -0.7922  -46.7572  -15.1752 C   0  0  0  0  0  0  0  0  0  0  0  0
   -0.5160  -48.0033  -15.6667 N   0  0  0  0  0  0  0  0  0  0  0  0
   -1.5164  -48.8337  -15.3476 C   0  0  0  0  0  0  0  0  0  0  0  0
    0.3310  -48.2605  -16.1993 H   0  0  0  0  0  0  0  0  0  0  0  0
 14 15  1  0  0  0
 15 16  2  0  0  0
 16 17  1  0  0  0
 17 18  2  0  0  0
 18  8  1  0  0  0
  8  9  1  0  0  0
  9 10  2  0  0  0
  9 11  1  0  0  0
 11  1  1  0  0  0
  1  2  2  0  0  0
  2  3  1  0  0  0
  3  4  2  0  0  0
  4 22  1  0  0  0
 22 23  1  0  0  0
 23 24  2  0  0  0
 24 25  1  0  0  0
 25 26  2  0  0  0
 26 27  1  0  0  0
 27 28  1  0  0  0
 28 29  2  0  0  0
 29 30  1  0  0  0
 30 31  1  0  0  0
  4  5  1  0  0  0
  5  6  1  0  0  0
  5  7  2  0  0  0
 18 19  1  0  0  0
 19 20  2  0  0  0
 20 21  1  0  0  0
 20 15  1  0  0  0
  7  1  1  0  0  0
 31 23  1  0  0  0
 31 27  2  0  0  0
  8 12  1  0  0  0
 11 13  1  0  0  0
 30 32  1  0  0  0
M  END
> <minimizedAffinity>
-8.20211

> <CNNscore>
0.3252467513

> <CNNaffinity>
6.5424928665

> <CNN_VS>
2.1279244423

> <CNNaffinity_variance>
0.0252137892

$$$$
[H]c1nc2c([H])c([H])n([H])c2c(Oc2c([H])c([H])c(N([H])C(=O)N([H])c3c([H])c([H])c(Cl)c(Cl)c3[H])c([H])c2Cl)c1[H]


 32 35  0  0  0  0  0  0  0  0999 V2000
    4.0010  -49.9303  -24.6065 C   0  0  0  0  0  0  0  0  0  0  0  0
    4.1529  -51.3134  -24.4695 C   0  0  0  0  0  0  0  0  0  0  0  0
    3.4385  -51.9991  -23.5207 C   0  0  0  0  0  0  0  0  0  0  0  0
    2.5387  -51.3707  -22.6563 C   0  0  0  0  0  0  0  0  0  0  0  0
    2.4085  -49.9734  -22.8214 C   0  0  0  0  0  0  0  0  0  0  0  0
    1.2979  -49.1054  -21.7752 Cl  0  0  0  0  0  0  0  0  0  0  0  0
    3.1244  -49.2842  -23.7732 C   0  0  0  0  0  0  0  0  0  0  0  0
    5.2614  -48.5305  -27.8352 N   0  0  0  0  0  0  0  0  0  0  0  0
    4.3456  -49.1697  -26.9716 C   0  0  0  0  0  0  0  0  0  0  0  0
    3.2375  -49.6013  -27.2975 O   0  0  0  0  0  0  0  0  0  0  0  0
    4.7514  -49.3206  -25.6130 N   0  0  0  0  0  0  0  0  0  0  0  0
    6.1844  -48.2077  -27.4141 H   0  0  0  0  0  0  0  0  0  0  0  0
    5.7165  -48.9427  -25.3255 H   0  0  0  0  0  0  0  0  0  0  0  0
    4.6490  -47.6408  -33.7315 Cl  0  0  0  0  0  0  0  0  0  0  0  0
    4.7938  -47.8728  -31.9979 C   0  0  0  0  0  0  0  0  0  0  0  0
    5.7170  -48.7546  -31.4859 C   0  0  0  0  0  0  0  0  0  0  0  0
    5.8656  -48.9681  -30.1382 C   0  0  0  0  0  0  0  0  0  0  0  0
    5.0629  -48.2794  -29.2032 C   0  0  0  0  0  0  0  0  0  0  0  0
    4.1480  -47.4045  -29.7237 C   0  0  0  0  0  0  0  0  0  0  0  0
    4.0015  -47.1909  -31.1082 C   0  0  0  0  0  0  0  0  0  0  0  0
    2.8217  -46.0656  -31.7408 Cl  0  0  0  0  0  0  0  0  0  0  0  0
    1.8041  -51.9331  -21.7116 O   0  0  0  0  0  0  0  0  0  0  0  0
    0.7424  -52.6466  -21.4091 C   0  0  0  0  0  0  0  0  0  0  0  0
    0.1494  -52.7242  -20.1750 C   0  0  0  0  0  0  0  0  0  0  0  0
   -0.9869  -53.5124  -19.9333 C   0  0  0  0  0  0  0  0  0  0  0  0
   -1.5292  -54.2222  -20.9247 N   0  0  0  0  0  0  0  0  0  0  0  0
   -0.9910  -54.1836  -22.1498 C   0  0  0  0  0  0  0  0  0  0  0  0
   -1.4129  -54.8491  -23.2971 C   0  0  0  0  0  0  0  0  0  0  0  0
   -0.5190  -54.4623  -24.2611 C   0  0  0  0  0  0  0  0  0  0  0  0
    0.3953  -53.6045  -23.7144 N   0  0  0  0  0  0  0  0  0  0  0  0
    0.1124  -53.4281  -22.4178 C   0  0  0  0  0  0  0  0  0  0  0  0
    1.1789  -53.1638  -24.2233 H   0  0  0  0  0  0  0  0  0  0  0  0
 14 15  1  0  0  0
 15 16  2  0  0  0
 16 17  1  0  0  0
 17 18  2  0  0  0
 18  8  1  0  0  0
  8  9  1  0  0  0
  9 10  2  0  0  0
  9 11  1  0  0  0
 11  1  1  0  0  0
  1  2  2  0  0  0
  2  3  1  0  0  0
  3  4  2  0  0  0
  4 22  1  0  0  0
 22 23  1  0  0  0
 23 24  2  0  0  0
 24 25  1  0  0  0
 25 26  2  0  0  0
 26 27  1  0  0  0
 27 28  1  0  0  0
 28 29  2  0  0  0
 29 30  1  0  0  0
 30 31  1  0  0  0
  4  5  1  0  0  0
  5  6  1  0  0  0
  5  7  2  0  0  0
 18 19  1  0  0  0
 19 20  2  0  0  0
 20 21  1  0  0  0
 20 15  1  0  0  0
  7  1  1  0  0  0
 31 23  1  0  0  0
 31 27  2  0  0  0
  8 12  1  0  0  0
 11 13  1  0  0  0
 30 32  1  0  0  0
M  END
> <minimizedAffinity>
-7.54496

> <CNNscore>
0.3138914704

> <CNNaffinity>
6.5234937668

> <CNN_VS>
2.0476689339

> <CNNaffinity_variance>
0.1860166937

$$$$
[H]c1nc2c([H])c([H])n([H])c2c(Oc2c([H])c([H])c(N([H])C(=O)N([H])c3c([H])c([H])c(Cl)c(Cl)c3[H])c([H])c2Cl)c1[H]


 32 35  0  0  0  0  0  0  0  0999 V2000
    0.6557  -52.0914  -19.8865 C   0  0  0  0  0  0  0  0  0  0  0  0
    1.2494  -51.0244  -19.2053 C   0  0  0  0  0  0  0  0  0  0  0  0
    0.7902  -50.6493  -17.9687 C   0  0  0  0  0  0  0  0  0  0  0  0
   -0.2722  -51.2961  -17.3325 C   0  0  0  0  0  0  0  0  0  0  0  0
   -0.8490  -52.3698  -18.0473 C   0  0  0  0  0  0  0  0  0  0  0  0
   -2.1901  -53.2375  -17.3192 Cl  0  0  0  0  0  0  0  0  0  0  0  0
   -0.3891  -52.7474  -19.2881 C   0  0  0  0  0  0  0  0  0  0  0  0
    1.2633  -52.7056  -23.5233 N   0  0  0  0  0  0  0  0  0  0  0  0
    0.5305  -52.3152  -22.3815 C   0  0  0  0  0  0  0  0  0  0  0  0
   -0.6305  -51.8999  -22.3848 O   0  0  0  0  0  0  0  0  0  0  0  0
    1.2035  -52.4159  -21.1285 N   0  0  0  0  0  0  0  0  0  0  0  0
    2.2606  -53.0449  -23.3697 H   0  0  0  0  0  0  0  0  0  0  0  0
    2.2172  -52.7755  -21.1231 H   0  0  0  0  0  0  0  0  0  0  0  0
   -0.4516  -52.6550  -29.2670 Cl  0  0  0  0  0  0  0  0  0  0  0  0
    0.0075  -52.6625  -27.5730 C   0  0  0  0  0  0  0  0  0  0  0  0
    1.3082  -52.9137  -27.2029 C   0  0  0  0  0  0  0  0  0  0  0  0
    1.7128  -52.9295  -25.8914 C   0  0  0  0  0  0  0  0  0  0  0  0
    0.7945  -52.6842  -24.8475 C   0  0  0  0  0  0  0  0  0  0  0  0
   -0.4967  -52.4353  -25.2273 C   0  0  0  0  0  0  0  0  0  0  0  0
   -0.9041  -52.4208  -26.5755 C   0  0  0  0  0  0  0  0  0  0  0  0
   -2.5628  -52.0998  -27.0269 Cl  0  0  0  0  0  0  0  0  0  0  0  0
   -0.7912  -51.0173  -16.1487 O   0  0  0  0  0  0  0  0  0  0  0  0
   -1.5870  -50.2482  -15.4396 C   0  0  0  0  0  0  0  0  0  0  0  0
   -1.6810  -48.8832  -15.5332 C   0  0  0  0  0  0  0  0  0  0  0  0
   -2.5597  -48.1321  -14.7366 C   0  0  0  0  0  0  0  0  0  0  0  0
   -3.3432  -48.7454  -13.8475 N   0  0  0  0  0  0  0  0  0  0  0  0
   -3.2924  -50.0765  -13.7140 C   0  0  0  0  0  0  0  0  0  0  0  0
   -4.0256  -50.8838  -12.8492 C   0  0  0  0  0  0  0  0  0  0  0  0
   -3.5889  -52.1543  -13.1199 C   0  0  0  0  0  0  0  0  0  0  0  0
   -2.6381  -52.1078  -14.1020 N   0  0  0  0  0  0  0  0  0  0  0  0
   -2.4501  -50.8351  -14.4723 C   0  0  0  0  0  0  0  0  0  0  0  0
   -2.1448  -52.9263  -14.4942 H   0  0  0  0  0  0  0  0  0  0  0  0
 14 15  1  0  0  0
 15 16  2  0  0  0
 16 17  1  0  0  0
 17 18  2  0  0  0
 18  8  1  0  0  0
  8  9  1  0  0  0
  9 10  2  0  0  0
  9 11  1  0  0  0
 11  1  1  0  0  0
  1  2  2  0  0  0
  2  3  1  0  0  0
  3  4  2  0  0  0
  4 22  1  0  0  0
 22 23  1  0  0  0
 23 24  2  0  0  0
 24 25  1  0  0  0
 25 26  2  0  0  0
 26 27  1  0  0  0
 27 28  1  0  0  0
 28 29  2  0  0  0
 29 30  1  0  0  0
 30 31  1  0  0  0
  4  5  1  0  0  0
  5  6  1  0  0  0
  5  7  2  0  0  0
 18 19  1  0  0  0
 19 20  2  0  0  0
 20 21  1  0  0  0
 20 15  1  0  0  0
  7  1  1  0  0  0
 31 23  1  0  0  0
 31 27  2  0  0  0
  8 12  1  0  0  0
 11 13  1  0  0  0
 30 32  1  0  0  0
M  END
> <minimizedAffinity>
-8.16802

> <CNNscore>
0.2510033846

> <CNNaffinity>
6.4915108681

> <CNN_VS>
1.6293911934

> <CNNaffinity_variance>
0.0888709724

$$$$
[H]c1nc2c([H])c([H])n([H])c2c(Oc2c([H])c([H])c(N([H])C(=O)N([H])c3c([H])c([H])c(Cl)c(Cl)c3[H])c([H])c2Cl)c1[H]


 32 35  0  0  0  0  0  0  0  0999 V2000
   -0.9309  -53.4482  -20.7082 C   0  0  0  0  0  0  0  0  0  0  0  0
   -0.6299  -52.2217  -21.3081 C   0  0  0  0  0  0  0  0  0  0  0  0
   -0.4530  -52.1383  -22.6655 C   0  0  0  0  0  0  0  0  0  0  0  0
   -0.5607  -53.2475  -23.5080 C   0  0  0  0  0  0  0  0  0  0  0  0
   -0.8660  -54.4708  -22.8703 C   0  0  0  0  0  0  0  0  0  0  0  0
   -1.0195  -55.9150  -23.8562 Cl  0  0  0  0  0  0  0  0  0  0  0  0
   -1.0442  -54.5559  -21.5084 C   0  0  0  0  0  0  0  0  0  0  0  0
   -0.9371  -52.5975  -17.0683 N   0  0  0  0  0  0  0  0  0  0  0  0
   -0.6537  -52.4157  -18.4393 C   0  0  0  0  0  0  0  0  0  0  0  0
   -0.0459  -51.4579  -18.9227 O   0  0  0  0  0  0  0  0  0  0  0  0
   -1.1157  -53.4332  -19.3249 N   0  0  0  0  0  0  0  0  0  0  0  0
   -1.4729  -53.4756  -16.7937 H   0  0  0  0  0  0  0  0  0  0  0  0
   -1.6485  -54.2686  -18.9061 H   0  0  0  0  0  0  0  0  0  0  0  0
    0.3773  -48.6713  -12.7335 Cl  0  0  0  0  0  0  0  0  0  0  0  0
    0.0269  -49.8469  -13.9887 C   0  0  0  0  0  0  0  0  0  0  0  0
   -1.0498  -49.6737  -14.8270 C   0  0  0  0  0  0  0  0  0  0  0  0
   -1.3619  -50.5662  -15.8221 C   0  0  0  0  0  0  0  0  0  0  0  0
   -0.5770  -51.7208  -16.0313 C   0  0  0  0  0  0  0  0  0  0  0  0
    0.4917  -51.8829  -15.1916 C   0  0  0  0  0  0  0  0  0  0  0  0
    0.8054  -50.9624  -14.1727 C   0  0  0  0  0  0  0  0  0  0  0  0
    2.1786  -51.1996  -13.1162 Cl  0  0  0  0  0  0  0  0  0  0  0  0
   -0.4099  -53.2781  -24.8213 O   0  0  0  0  0  0  0  0  0  0  0  0
    0.3888  -53.1044  -25.8507 C   0  0  0  0  0  0  0  0  0  0  0  0
    1.7572  -53.0269  -25.8038 C   0  0  0  0  0  0  0  0  0  0  0  0
    2.5410  -52.8395  -26.9534 C   0  0  0  0  0  0  0  0  0  0  0  0
    1.9568  -52.7299  -28.1481 N   0  0  0  0  0  0  0  0  0  0  0  0
    0.6239  -52.7982  -28.2520 C   0  0  0  0  0  0  0  0  0  0  0  0
   -0.1561  -52.7059  -29.4010 C   0  0  0  0  0  0  0  0  0  0  0  0
   -1.4427  -52.8390  -28.9485 C   0  0  0  0  0  0  0  0  0  0  0  0
   -1.4317  -53.0035  -27.5908 N   0  0  0  0  0  0  0  0  0  0  0  0
   -0.1660  -52.9795  -27.1552 C   0  0  0  0  0  0  0  0  0  0  0  0
   -2.2685  -53.1266  -26.9977 H   0  0  0  0  0  0  0  0  0  0  0  0
 14 15  1  0  0  0
 15 16  2  0  0  0
 16 17  1  0  0  0
 17 18  2  0  0  0
 18  8  1  0  0  0
  8  9  1  0  0  0
  9 10  2  0  0  0
  9 11  1  0  0  0
 11  1  1  0  0  0
  1  2  2  0  0  0
  2  3  1  0  0  0
  3  4  2  0  0  0
  4 22  1  0  0  0
 22 23  1  0  0  0
 23 24  2  0  0  0
 24 25  1  0  0  0
 25 26  2  0  0  0
 26 27  1  0  0  0
 27 28  1  0  0  0
 28 29  2  0  0  0
 29 30  1  0  0  0
 30 31  1  0  0  0
  4  5  1  0  0  0
  5  6  1  0  0  0
  5  7  2  0  0  0
 18 19  1  0  0  0
 19 20  2  0  0  0
 20 21  1  0  0  0
 20 15  1  0  0  0
  7  1  1  0  0  0
 31 23  1  0  0  0
 31 27  2  0  0  0
  8 12  1  0  0  0
 11 13  1  0  0  0
 30 32  1  0  0  0
M  END
> <minimizedAffinity>
-8.94689

> <CNNscore>
0.2504520118

> <CNNaffinity>
6.4788269997

> <CNN_VS>
1.6226352453

> <CNNaffinity_variance>
0.2647415996

$$$$
[H]c1nc2c([H])c([H])n([H])c2c(Oc2c([H])c([H])c(N([H])C(=O)N([H])c3c([H])c([H])c(Cl)c(Cl)c3[H])c([H])c2Cl)c1[H]


 32 35  0  0  0  0  0  0  0  0999 V2000
    0.9086  -52.4193  -20.3244 C   0  0  0  0  0  0  0  0  0  0  0  0
   -0.0620  -52.1530  -19.3539 C   0  0  0  0  0  0  0  0  0  0  0  0
    0.2483  -51.3991  -18.2511 C   0  0  0  0  0  0  0  0  0  0  0  0
    1.5218  -50.8656  -18.0382 C   0  0  0  0  0  0  0  0  0  0  0  0
    2.4785  -51.1528  -19.0376 C   0  0  0  0  0  0  0  0  0  0  0  0
    4.1049  -50.5201  -18.8478 Cl  0  0  0  0  0  0  0  0  0  0  0  0
    2.1685  -51.9089  -20.1447 C   0  0  0  0  0  0  0  0  0  0  0  0
   -0.0061  -53.6434  -23.7357 N   0  0  0  0  0  0  0  0  0  0  0  0
    0.4546  -52.7196  -22.7728 C   0  0  0  0  0  0  0  0  0  0  0  0
    0.8184  -51.5648  -23.0066 O   0  0  0  0  0  0  0  0  0  0  0  0
    0.4964  -53.1757  -21.4225 N   0  0  0  0  0  0  0  0  0  0  0  0
   -0.2876  -54.6096  -23.3885 H   0  0  0  0  0  0  0  0  0  0  0  0
    0.1820  -54.1835  -21.2161 H   0  0  0  0  0  0  0  0  0  0  0  0
   -0.2141  -52.6641  -29.6460 Cl  0  0  0  0  0  0  0  0  0  0  0  0
   -0.1977  -52.9422  -27.9131 C   0  0  0  0  0  0  0  0  0  0  0  0
    0.9577  -53.3375  -27.2801 C   0  0  0  0  0  0  0  0  0  0  0  0
    1.0176  -53.5662  -25.9280 C   0  0  0  0  0  0  0  0  0  0  0  0
   -0.1247  -53.4026  -25.1148 C   0  0  0  0  0  0  0  0  0  0  0  0
   -1.2686  -53.0089  -25.7551 C   0  0  0  0  0  0  0  0  0  0  0  0
   -1.3219  -52.7761  -27.1432 C   0  0  0  0  0  0  0  0  0  0  0  0
   -2.8004  -52.2741  -27.9307 Cl  0  0  0  0  0  0  0  0  0  0  0  0
    1.9256  -50.1302  -17.0162 O   0  0  0  0  0  0  0  0  0  0  0  0
    1.6040  -49.2869  -16.0606 C   0  0  0  0  0  0  0  0  0  0  0  0
    0.3810  -48.6899  -15.8916 C   0  0  0  0  0  0  0  0  0  0  0  0
    0.1172  -47.7972  -14.8407 C   0  0  0  0  0  0  0  0  0  0  0  0
    1.0753  -47.5019  -13.9602 N   0  0  0  0  0  0  0  0  0  0  0  0
    2.2883  -48.0560  -14.0776 C   0  0  0  0  0  0  0  0  0  0  0  0
    3.4021  -47.8707  -13.2639 C   0  0  0  0  0  0  0  0  0  0  0  0
    4.3678  -48.6643  -13.8255 C   0  0  0  0  0  0  0  0  0  0  0  0
    3.8540  -49.2953  -14.9249 N   0  0  0  0  0  0  0  0  0  0  0  0
    2.5771  -48.9269  -15.0866 C   0  0  0  0  0  0  0  0  0  0  0  0
    4.3711  -49.9515  -15.5324 H   0  0  0  0  0  0  0  0  0  0  0  0
 14 15  1  0  0  0
 15 16  2  0  0  0
 16 17  1  0  0  0
 17 18  2  0  0  0
 18  8  1  0  0  0
  8  9  1  0  0  0
  9 10  2  0  0  0
  9 11  1  0  0  0
 11  1  1  0  0  0
  1  2  2  0  0  0
  2  3  1  0  0  0
  3  4  2  0  0  0
  4 22  1  0  0  0
 22 23  1  0  0  0
 23 24  2  0  0  0
 24 25  1  0  0  0
 25 26  2  0  0  0
 26 27  1  0  0  0
 27 28  1  0  0  0
 28 29  2  0  0  0
 29 30  1  0  0  0
 30 31  1  0  0  0
  4  5  1  0  0  0
  5  6  1  0  0  0
  5  7  2  0  0  0
 18 19  1  0  0  0
 19 20  2  0  0  0
 20 21  1  0  0  0
 20 15  1  0  0  0
  7  1  1  0  0  0
 31 23  1  0  0  0
 31 27  2  0  0  0
  8 12  1  0  0  0
 11 13  1  0  0  0
 30 32  1  0  0  0
M  END
> <minimizedAffinity>
-7.37021

> <CNNscore>
0.2215430737

> <CNNaffinity>
6.3776693344

> <CNN_VS>
1.4129284620

> <CNNaffinity_variance>
0.2696185410

$$$$
[H]c1nc2c([H])c([H])n([H])c2c(Oc2c([H])c([H])c(N([H])C(=O)N([H])c3c([H])c([H])c(Cl)c(Cl)c3[H])c([H])c2Cl)c1[H]


 32 35  0  0  0  0  0  0  0  0999 V2000
    3.0285  -50.4157  -26.0006 C   0  0  0  0  0  0  0  0  0  0  0  0
    3.4507  -50.2292  -24.6808 C   0  0  0  0  0  0  0  0  0  0  0  0
    2.6191  -50.5410  -23.6358 C   0  0  0  0  0  0  0  0  0  0  0  0
    1.3323  -51.0512  -23.8245 C   0  0  0  0  0  0  0  0  0  0  0  0
    0.9371  -51.2280  -25.1695 C   0  0  0  0  0  0  0  0  0  0  0  0
   -0.6658  -51.8651  -25.4956 Cl  0  0  0  0  0  0  0  0  0  0  0  0
    1.7706  -50.9159  -26.2189 C   0  0  0  0  0  0  0  0  0  0  0  0
    5.0767  -48.6999  -28.6147 N   0  0  0  0  0  0  0  0  0  0  0  0
    4.0862  -48.8141  -27.6153 C   0  0  0  0  0  0  0  0  0  0  0  0
    3.3406  -47.9062  -27.2407 O   0  0  0  0  0  0  0  0  0  0  0  0
    3.9496  -50.0922  -26.9980 N   0  0  0  0  0  0  0  0  0  0  0  0
    5.6488  -49.5702  -28.8354 H   0  0  0  0  0  0  0  0  0  0  0  0
    4.6005  -50.8853  -27.3211 H   0  0  0  0  0  0  0  0  0  0  0  0
    6.5676  -43.6715  -31.5173 Cl  0  0  0  0  0  0  0  0  0  0  0  0
    6.0998  -45.1521  -30.6992 C   0  0  0  0  0  0  0  0  0  0  0  0
    6.7656  -45.5659  -29.5689 C   0  0  0  0  0  0  0  0  0  0  0  0
    6.4347  -46.7159  -28.8965 C   0  0  0  0  0  0  0  0  0  0  0  0
    5.3778  -47.5377  -29.3443 C   0  0  0  0  0  0  0  0  0  0  0  0
    4.7223  -47.1163  -30.4696 C   0  0  0  0  0  0  0  0  0  0  0  0
    5.0679  -45.9348  -31.1541 C   0  0  0  0  0  0  0  0  0  0  0  0
    4.2099  -45.4248  -32.5899 Cl  0  0  0  0  0  0  0  0  0  0  0  0
    0.4537  -51.3829  -22.8936 O   0  0  0  0  0  0  0  0  0  0  0  0
   -0.0752  -52.3333  -22.1556 C   0  0  0  0  0  0  0  0  0  0  0  0
   -0.6096  -53.5086  -22.6182 C   0  0  0  0  0  0  0  0  0  0  0  0
   -1.1572  -54.4761  -21.7610 C   0  0  0  0  0  0  0  0  0  0  0  0
   -1.1704  -54.2684  -20.4429 N   0  0  0  0  0  0  0  0  0  0  0  0
   -0.6620  -53.1382  -19.9367 C   0  0  0  0  0  0  0  0  0  0  0  0
   -0.5880  -52.7491  -18.6024 C   0  0  0  0  0  0  0  0  0  0  0  0
    0.0163  -51.5198  -18.6411 C   0  0  0  0  0  0  0  0  0  0  0  0
    0.2909  -51.1897  -19.9397 N   0  0  0  0  0  0  0  0  0  0  0  0
   -0.1227  -52.1786  -20.7418 C   0  0  0  0  0  0  0  0  0  0  0  0
    0.7455  -50.3154  -20.2498 H   0  0  0  0  0  0  0  0  0  0  0  0
 14 15  1  0  0  0
 15 16  2  0  0  0
 16 17  1  0  0  0
 17 18  2  0  0  0
 18  8  1  0  0  0
  8  9  1  0  0  0
  9 10  2  0  0  0
  9 11  1  0  0  0
 11  1  1  0  0  0
  1  2  2  0  0  0
  2  3  1  0  0  0
  3  4  2  0  0  0
  4 22  1  0  0  0
 22 23  1  0  0  0
 23 24  2  0  0  0
 24 25  1  0  0  0
 25 26  2  0  0  0
 26 27  1  0  0  0
 27 28  1  0  0  0
 28 29  2  0  0  0
 29 30  1  0  0  0
 30 31  1  0  0  0
  4  5  1  0  0  0
  5  6  1  0  0  0
  5  7  2  0  0  0
 18 19  1  0  0  0
 19 20  2  0  0  0
 20 21  1  0  0  0
 20 15  1  0  0  0
  7  1  1  0  0  0
 31 23  1  0  0  0
 31 27  2  0  0  0
  8 12  1  0  0  0
 11 13  1  0  0  0
 30 32  1  0  0  0
M  END
> <minimizedAffinity>
-7.16279

> <CNNscore>
0.1978227943

> <CNNaffinity>
6.2184262276

> <CNN_VS>
1.2301464081

> <CNNaffinity_variance>
0.2943114340

$$$$
[H]c1nc2c([H])c([H])n([H])c2c(Oc2c([H])c([H])c(N([H])C(=O)N([H])c3c([H])c([H])c(Cl)c(Cl)c3[H])c([H])c2Cl)c1[H]


 32 35  0  0  0  0  0  0  0  0999 V2000
    0.1730  -51.7614  -20.4833 C   0  0  0  0  0  0  0  0  0  0  0  0
    0.7567  -50.9233  -21.4383 C   0  0  0  0  0  0  0  0  0  0  0  0
    0.8219  -51.3092  -22.7527 C   0  0  0  0  0  0  0  0  0  0  0  0
    0.3208  -52.5329  -23.2036 C   0  0  0  0  0  0  0  0  0  0  0  0
   -0.2626  -53.3553  -22.2137 C   0  0  0  0  0  0  0  0  0  0  0  0
   -0.9173  -54.9112  -22.6954 Cl  0  0  0  0  0  0  0  0  0  0  0  0
   -0.3290  -52.9693  -20.8946 C   0  0  0  0  0  0  0  0  0  0  0  0
    0.9942  -50.6278  -17.0173 N   0  0  0  0  0  0  0  0  0  0  0  0
    1.2556  -51.1284  -18.3112 C   0  0  0  0  0  0  0  0  0  0  0  0
    2.3661  -51.4431  -18.7451 O   0  0  0  0  0  0  0  0  0  0  0  0
    0.1311  -51.2764  -19.1753 N   0  0  0  0  0  0  0  0  0  0  0  0
   -0.0175  -50.3969  -16.7794 H   0  0  0  0  0  0  0  0  0  0  0  0
   -0.8384  -51.0003  -18.8002 H   0  0  0  0  0  0  0  0  0  0  0  0
    5.0904  -49.3832  -12.8215 Cl  0  0  0  0  0  0  0  0  0  0  0  0
    3.8915  -49.7910  -14.0367 C   0  0  0  0  0  0  0  0  0  0  0  0
    3.3512  -48.8141  -14.8402 C   0  0  0  0  0  0  0  0  0  0  0  0
    2.4117  -49.0862  -15.8032 C   0  0  0  0  0  0  0  0  0  0  0  0
    1.9516  -50.4041  -16.0138 C   0  0  0  0  0  0  0  0  0  0  0  0
    2.4960  -51.3680  -15.2088 C   0  0  0  0  0  0  0  0  0  0  0  0
    3.4599  -51.0807  -14.2227 C   0  0  0  0  0  0  0  0  0  0  0  0
    4.1354  -52.3362  -13.2101 Cl  0  0  0  0  0  0  0  0  0  0  0  0
    0.3323  -53.0006  -24.4403 O   0  0  0  0  0  0  0  0  0  0  0  0
    0.8238  -52.9104  -25.6560 C   0  0  0  0  0  0  0  0  0  0  0  0
    2.1545  -52.8983  -25.9875 C   0  0  0  0  0  0  0  0  0  0  0  0
    2.5992  -52.7988  -27.3154 C   0  0  0  0  0  0  0  0  0  0  0  0
    1.7142  -52.7115  -28.3102 N   0  0  0  0  0  0  0  0  0  0  0  0
    0.4024  -52.7185  -28.0437 C   0  0  0  0  0  0  0  0  0  0  0  0
   -0.6590  -52.6369  -28.9404 C   0  0  0  0  0  0  0  0  0  0  0  0
   -1.7762  -52.6872  -28.1484 C   0  0  0  0  0  0  0  0  0  0  0  0
   -1.3991  -52.7941  -26.8380 N   0  0  0  0  0  0  0  0  0  0  0  0
   -0.0625  -52.8140  -26.7651 C   0  0  0  0  0  0  0  0  0  0  0  0
   -2.0452  -52.8506  -26.0338 H   0  0  0  0  0  0  0  0  0  0  0  0
 14 15  1  0  0  0
 15 16  2  0  0  0
 16 17  1  0  0  0
 17 18  2  0  0  0
 18  8  1  0  0  0
  8  9  1  0  0  0
  9 10  2  0  0  0
  9 11  1  0  0  0
 11  1  1  0  0  0
  1  2  2  0  0  0
  2  3  1  0  0  0
  3  4  2  0  0  0
  4 22  1  0  0  0
 22 23  1  0  0  0
 23 24  2  0  0  0
 24 25  1  0  0  0
 25 26  2  0  0  0
 26 27  1  0  0  0
 27 28  1  0  0  0
 28 29  2  0  0  0
 29 30  1  0  0  0
 30 31  1  0  0  0
  4  5  1  0  0  0
  5  6  1  0  0  0
  5  7  2  0  0  0
 18 19  1  0  0  0
 19 20  2  0  0  0
 20 21  1  0  0  0
 20 15  1  0  0  0
  7  1  1  0  0  0
 31 23  1  0  0  0
 31 27  2  0  0  0
  8 12  1  0  0  0
 11 13  1  0  0  0
 30 32  1  0  0  0
M  END
> <minimizedAffinity>
-8.56518

> <CNNscore>
0.1921744198

> <CNNaffinity>
6.3152174950

> <CNN_VS>
1.2136232853

> <CNNaffinity_variance>
0.0748216137

$$$$
[H]c1nc([H])c2c([H])c([H])c(N([H])C([H])([H])C([H])([H])[H])nc2c1N([H])c1c([H])c(Oc2c([H])c([H])c(N([H])C(=O)C3(C(=O)N4C([H])([H])C([H])([H])N(C([H])([H])[H])C([H])([H])C4([H])[H])C([H])([H])C3([H])[H])c(C([H])([H])[H])c2[H])c(Cl)c([H])c1Cl


 48 53  0  0  0  0  0  0  0  0999 V2000
    0.7901  -52.2769  -22.0590 C   0  0  0  0  0  0  0  0  0  0  0  0
    1.6243  -51.2077  -22.2720 C   0  0  0  0  0  0  0  0  0  0  0  0
    1.8240  -50.1890  -21.3277 C   0  0  0  0  0  0  0  0  0  0  0  0
    1.1329  -50.3006  -20.1475 C   0  0  0  0  0  0  0  0  0  0  0  0
    1.2892  -49.0601  -18.9186 Cl  0  0  0  0  0  0  0  0  0  0  0  0
    0.2783  -51.3852  -19.9176 C   0  0  0  0  0  0  0  0  0  0  0  0
    0.0916  -52.3721  -20.8426 C   0  0  0  0  0  0  0  0  0  0  0  0
   -0.9907  -53.7333  -20.5279 Cl  0  0  0  0  0  0  0  0  0  0  0  0
    0.5257  -53.2607  -23.0103 N   0  0  0  0  0  0  0  0  0  0  0  0
    0.6339  -54.2936  -22.6847 H   0  0  0  0  0  0  0  0  0  0  0  0
    3.4289  -52.7018  -25.8888 C   0  0  0  0  0  0  0  0  0  0  0  0
    3.1472  -52.4930  -27.2159 C   0  0  0  0  0  0  0  0  0  0  0  0
    1.8022  -52.4966  -27.5886 C   0  0  0  0  0  0  0  0  0  0  0  0
    0.8235  -52.7038  -26.6409 C   0  0  0  0  0  0  0  0  0  0  0  0
   -0.5125  -52.7171  -26.9801 C   0  0  0  0  0  0  0  0  0  0  0  0
   -1.4549  -52.9240  -26.0481 N   0  0  0  0  0  0  0  0  0  0  0  0
   -1.1629  -53.1296  -24.7344 C   0  0  0  0  0  0  0  0  0  0  0  0
    0.1367  -53.1291  -24.3390 C   0  0  0  0  0  0  0  0  0  0  0  0
    1.1231  -52.9109  -25.3199 C   0  0  0  0  0  0  0  0  0  0  0  0
    2.4211  -52.9038  -24.9811 N   0  0  0  0  0  0  0  0  0  0  0  0
    4.7774  -52.7056  -25.4420 N   0  0  0  0  0  0  0  0  0  0  0  0
    5.5468  -52.9246  -26.1473 H   0  0  0  0  0  0  0  0  0  0  0  0
    6.1940  -51.4020  -23.8864 C   0  0  0  0  0  0  0  0  0  0  0  0
    5.0860  -52.4190  -24.0678 C   0  0  0  0  0  0  0  0  0  0  0  0
    2.6771  -49.1382  -21.6018 O   0  0  0  0  0  0  0  0  0  0  0  0
    2.8928  -48.6631  -22.8723 C   0  0  0  0  0  0  0  0  0  0  0  0
    3.1829  -49.4416  -23.9543 C   0  0  0  0  0  0  0  0  0  0  0  0
    3.3916  -48.8708  -25.2242 C   0  0  0  0  0  0  0  0  0  0  0  0
    3.3196  -47.5235  -25.4599 C   0  0  0  0  0  0  0  0  0  0  0  0
    3.0202  -46.7436  -24.3347 C   0  0  0  0  0  0  0  0  0  0  0  0
    2.9260  -45.2747  -24.5168 C   0  0  0  0  0  0  0  0  0  0  0  0
    2.8155  -47.2964  -23.0904 C   0  0  0  0  0  0  0  0  0  0  0  0
    3.5105  -46.8735  -26.6744 N   0  0  0  0  0  0  0  0  0  0  0  0
    3.7538  -47.4173  -27.9622 C   0  0  0  0  0  0  0  0  0  0  0  0
    3.8065  -48.6219  -28.0698 O   0  0  0  0  0  0  0  0  0  0  0  0
    3.4628  -45.8035  -26.6678 H   0  0  0  0  0  0  0  0  0  0  0  0
    3.9245  -46.4691  -29.0880 C   0  0  0  0  0  0  0  0  0  0  0  0
    5.1104  -45.4927  -28.9399 C   0  0  0  0  0  0  0  0  0  0  0  0
    3.7570  -44.9964  -28.7298 C   0  0  0  0  0  0  0  0  0  0  0  0
    3.6665  -46.7540  -30.4974 C   0  0  0  0  0  0  0  0  0  0  0  0
    2.4712  -46.2450  -30.8937 O   0  0  0  0  0  0  0  0  0  0  0  0
    4.3037  -47.3980  -31.5384 N   0  0  0  0  0  0  0  0  0  0  0  0
    3.5655  -47.4155  -32.8532 C   0  0  0  0  0  0  0  0  0  0  0  0
    4.4080  -46.8218  -33.9418 C   0  0  0  0  0  0  0  0  0  0  0  0
    5.7101  -47.4721  -34.0186 N   0  0  0  0  0  0  0  0  0  0  0  0
    6.8084  -46.5559  -34.0182 C   0  0  0  0  0  0  0  0  0  0  0  0
    5.8166  -48.5375  -33.0686 C   0  0  0  0  0  0  0  0  0  0  0  0
    5.5641  -48.0661  -31.6251 C   0  0  0  0  0  0  0  0  0  0  0  0
 23 24  1  0  0  0
 24 21  1  0  0  0
 21 11  1  0  0  0
 11 12  2  0  0  0
 12 13  1  0  0  0
 13 14  2  0  0  0
 14 15  1  0  0  0
 15 16  2  0  0  0
 16 17  1  0  0  0
 17 18  2  0  0  0
 18  9  1  0  0  0
  9  1  1  0  0  0
  1  2  2  0  0  0
  2  3  1  0  0  0
  3 25  1  0  0  0
 25 26  1  0  0  0
 26 27  2  0  0  0
 27 28  1  0  0  0
 28 29  2  0  0  0
 29 33  1  0  0  0
 33 34  1  0  0  0
 34 35  2  0  0  0
 34 37  1  0  0  0
 37 38  1  0  0  0
 38 39  1  0  0  0
 37 40  1  0  0  0
 40 41  2  0  0  0
 40 42  1  0  0  0
 42 43  1  0  0  0
 43 44  1  0  0  0
 44 45  1  0  0  0
 45 46  1  0  0  0
 45 47  1  0  0  0
 47 48  1  0  0  0
 29 30  1  0  0  0
 30 31  1  0  0  0
 30 32  2  0  0  0
  3  4  2  0  0  0
  4  5  1  0  0  0
  4  6  1  0  0  0
  6  7  2  0  0  0
  7  8  1  0  0  0
 18 19  1  0  0  0
 19 20  2  0  0  0
 20 11  1  0  0  0
 19 14  1  0  0  0
  7  1  1  0  0  0
 32 26  1  0  0  0
 39 37  1  0  0  0
 48 42  1  0  0  0
 21 22  1  0  0  0
  9 10  1  0  0  0
 33 36  1  0  0  0
M  END
> <minimizedAffinity>
-8.90311

> <CNNscore>
0.3123133183

> <CNNaffinity>
7.6880311966

> <CNN_VS>
2.4010746479

> <CNNaffinity_variance>
0.3974051476

$$$$
[H]c1nc([H])c2c([H])c([H])c(N([H])C([H])([H])C([H])([H])[H])nc2c1N([H])c1c([H])c(Oc2c([H])c([H])c(N([H])C(=O)C3(C(=O)N4C([H])([H])C([H])([H])N(C([H])([H])[H])C([H])([H])C4([H])[H])C([H])([H])C3([H])[H])c(C([H])([H])[H])c2[H])c(Cl)c([H])c1Cl


 48 53  0  0  0  0  0  0  0  0999 V2000
    0.7864  -51.2505  -20.4876 C   0  0  0  0  0  0  0  0  0  0  0  0
    1.8809  -50.6195  -21.0245 C   0  0  0  0  0  0  0  0  0  0  0  0
    2.9756  -50.1935  -20.2567 C   0  0  0  0  0  0  0  0  0  0  0  0
    2.9113  -50.4348  -18.9075 C   0  0  0  0  0  0  0  0  0  0  0  0
    4.2144  -49.9094  -17.8592 Cl  0  0  0  0  0  0  0  0  0  0  0  0
    1.8007  -51.0765  -18.3467 C   0  0  0  0  0  0  0  0  0  0  0  0
    0.7409  -51.4883  -19.1027 C   0  0  0  0  0  0  0  0  0  0  0  0
   -0.6490  -52.2993  -18.3718 Cl  0  0  0  0  0  0  0  0  0  0  0  0
   -0.3395  -51.6183  -21.2224 N   0  0  0  0  0  0  0  0  0  0  0  0
   -1.1329  -50.8773  -21.3000 H   0  0  0  0  0  0  0  0  0  0  0  0
    0.8672  -52.0335  -25.1465 C   0  0  0  0  0  0  0  0  0  0  0  0
    0.5842  -53.1375  -25.9115 C   0  0  0  0  0  0  0  0  0  0  0  0
   -0.1309  -54.1684  -25.3001 C   0  0  0  0  0  0  0  0  0  0  0  0
   -0.5212  -54.0519  -23.9837 C   0  0  0  0  0  0  0  0  0  0  0  0
   -1.2244  -55.0554  -23.3523 C   0  0  0  0  0  0  0  0  0  0  0  0
   -1.5945  -54.9308  -22.0689 N   0  0  0  0  0  0  0  0  0  0  0  0
   -1.3082  -53.8303  -21.3203 C   0  0  0  0  0  0  0  0  0  0  0  0
   -0.6160  -52.8082  -21.8871 C   0  0  0  0  0  0  0  0  0  0  0  0
   -0.2297  -52.9422  -23.2345 C   0  0  0  0  0  0  0  0  0  0  0  0
    0.4581  -51.9621  -23.8395 N   0  0  0  0  0  0  0  0  0  0  0  0
    1.5878  -50.9463  -25.7093 N   0  0  0  0  0  0  0  0  0  0  0  0
    1.0557  -50.0551  -25.9541 H   0  0  0  0  0  0  0  0  0  0  0  0
    3.7144  -51.9672  -24.9600 C   0  0  0  0  0  0  0  0  0  0  0  0
    3.0024  -51.0563  -25.9390 C   0  0  0  0  0  0  0  0  0  0  0  0
    4.0480  -49.5633  -20.8565 O   0  0  0  0  0  0  0  0  0  0  0  0
    3.9236  -48.7857  -21.9818 C   0  0  0  0  0  0  0  0  0  0  0  0
    2.9744  -47.8222  -22.1597 C   0  0  0  0  0  0  0  0  0  0  0  0
    2.9171  -47.0704  -23.3486 C   0  0  0  0  0  0  0  0  0  0  0  0
    3.7906  -47.2474  -24.3886 C   0  0  0  0  0  0  0  0  0  0  0  0
    4.7569  -48.2416  -24.1839 C   0  0  0  0  0  0  0  0  0  0  0  0
    5.7369  -48.4873  -25.2696 C   0  0  0  0  0  0  0  0  0  0  0  0
    4.8173  -48.9802  -23.0234 C   0  0  0  0  0  0  0  0  0  0  0  0
    3.8097  -46.5553  -25.5946 N   0  0  0  0  0  0  0  0  0  0  0  0
    3.2249  -46.8961  -26.8418 C   0  0  0  0  0  0  0  0  0  0  0  0
    2.6028  -47.9321  -26.9135 O   0  0  0  0  0  0  0  0  0  0  0  0
    4.3277  -45.6180  -25.6110 H   0  0  0  0  0  0  0  0  0  0  0  0
    3.4161  -45.9558  -27.9708 C   0  0  0  0  0  0  0  0  0  0  0  0
    2.1580  -45.7088  -28.8298 C   0  0  0  0  0  0  0  0  0  0  0  0
    3.2185  -46.5561  -29.3585 C   0  0  0  0  0  0  0  0  0  0  0  0
    4.2768  -44.7755  -27.9690 C   0  0  0  0  0  0  0  0  0  0  0  0
    3.7885  -43.8091  -27.1488 O   0  0  0  0  0  0  0  0  0  0  0  0
    5.4510  -44.3716  -28.5711 N   0  0  0  0  0  0  0  0  0  0  0  0
    5.9298  -42.9858  -28.2186 C   0  0  0  0  0  0  0  0  0  0  0  0
    7.3239  -43.0307  -27.6690 C   0  0  0  0  0  0  0  0  0  0  0  0
    8.2290  -43.7253  -28.5760 N   0  0  0  0  0  0  0  0  0  0  0  0
    8.9997  -44.7498  -27.9420 C   0  0  0  0  0  0  0  0  0  0  0  0
    7.5560  -44.1331  -29.7716 C   0  0  0  0  0  0  0  0  0  0  0  0
    6.3348  -45.0253  -29.4843 C   0  0  0  0  0  0  0  0  0  0  0  0
 23 24  1  0  0  0
 24 21  1  0  0  0
 21 11  1  0  0  0
 11 12  2  0  0  0
 12 13  1  0  0  0
 13 14  2  0  0  0
 14 15  1  0  0  0
 15 16  2  0  0  0
 16 17  1  0  0  0
 17 18  2  0  0  0
 18  9  1  0  0  0
  9  1  1  0  0  0
  1  2  2  0  0  0
  2  3  1  0  0  0
  3 25  1  0  0  0
 25 26  1  0  0  0
 26 27  2  0  0  0
 27 28  1  0  0  0
 28 29  2  0  0  0
 29 33  1  0  0  0
 33 34  1  0  0  0
 34 35  2  0  0  0
 34 37  1  0  0  0
 37 38  1  0  0  0
 38 39  1  0  0  0
 37 40  1  0  0  0
 40 41  2  0  0  0
 40 42  1  0  0  0
 42 43  1  0  0  0
 43 44  1  0  0  0
 44 45  1  0  0  0
 45 46  1  0  0  0
 45 47  1  0  0  0
 47 48  1  0  0  0
 29 30  1  0  0  0
 30 31  1  0  0  0
 30 32  2  0  0  0
  3  4  2  0  0  0
  4  5  1  0  0  0
  4  6  1  0  0  0
  6  7  2  0  0  0
  7  8  1  0  0  0
 18 19  1  0  0  0
 19 20  2  0  0  0
 20 11  1  0  0  0
 19 14  1  0  0  0
  7  1  1  0  0  0
 32 26  1  0  0  0
 39 37  1  0  0  0
 48 42  1  0  0  0
 21 22  1  0  0  0
  9 10  1  0  0  0
 33 36  1  0  0  0
M  END
> <minimizedAffinity>
-7.79129

> <CNNscore>
0.2100876421

> <CNNaffinity>
7.3751158714

> <CNN_VS>
1.5494207144

> <CNNaffinity_variance>
0.2096042931

$$$$
[H]c1nc([H])c2c([H])c([H])c(N([H])C([H])([H])C([H])([H])[H])nc2c1N([H])c1c([H])c(Oc2c([H])c([H])c(N([H])C(=O)C3(C(=O)N4C([H])([H])C([H])([H])N(C([H])([H])[H])C([H])([H])C4([H])[H])C([H])([H])C3([H])[H])c(C([H])([H])[H])c2[H])c(Cl)c([H])c1Cl


 48 53  0  0  0  0  0  0  0  0999 V2000
    1.3725  -50.9052  -21.1039 C   0  0  0  0  0  0  0  0  0  0  0  0
    2.4636  -50.6927  -21.9094 C   0  0  0  0  0  0  0  0  0  0  0  0
    3.6899  -50.2078  -21.4295 C   0  0  0  0  0  0  0  0  0  0  0  0
    3.7627  -49.9425  -20.0853 C   0  0  0  0  0  0  0  0  0  0  0  0
    5.2415  -49.3009  -19.3963 Cl  0  0  0  0  0  0  0  0  0  0  0  0
    2.6574  -50.1538  -19.2526 C   0  0  0  0  0  0  0  0  0  0  0  0
    1.4686  -50.6272  -19.7291 C   0  0  0  0  0  0  0  0  0  0  0  0
    0.0879  -50.8886  -18.6572 Cl  0  0  0  0  0  0  0  0  0  0  0  0
    0.1269  -51.3198  -21.5723 N   0  0  0  0  0  0  0  0  0  0  0  0
   -0.6168  -50.5411  -21.7309 H   0  0  0  0  0  0  0  0  0  0  0  0
    0.4380  -52.6710  -25.4587 C   0  0  0  0  0  0  0  0  0  0  0  0
   -0.0407  -53.8878  -25.8765 C   0  0  0  0  0  0  0  0  0  0  0  0
   -0.6395  -54.7004  -24.9126 C   0  0  0  0  0  0  0  0  0  0  0  0
   -0.7304  -54.2705  -23.6066 C   0  0  0  0  0  0  0  0  0  0  0  0
   -1.3123  -55.0531  -22.6324 C   0  0  0  0  0  0  0  0  0  0  0  0
   -1.3905  -54.6241  -21.3638 N   0  0  0  0  0  0  0  0  0  0  0  0
   -0.9123  -53.4146  -20.9615 C   0  0  0  0  0  0  0  0  0  0  0  0
   -0.3264  -52.5989  -21.8762 C   0  0  0  0  0  0  0  0  0  0  0  0
   -0.2467  -53.0523  -23.2070 C   0  0  0  0  0  0  0  0  0  0  0  0
    0.3251  -52.2855  -24.1476 N   0  0  0  0  0  0  0  0  0  0  0  0
    1.0546  -51.7936  -26.3903 N   0  0  0  0  0  0  0  0  0  0  0  0
    0.6577  -51.7399  -27.3787 H   0  0  0  0  0  0  0  0  0  0  0  0
    3.4328  -51.8116  -25.7051 C   0  0  0  0  0  0  0  0  0  0  0  0
    2.1873  -51.0005  -25.9982 C   0  0  0  0  0  0  0  0  0  0  0  0
    4.7515  -50.0146  -22.2915 O   0  0  0  0  0  0  0  0  0  0  0  0
    4.6671  -49.2314  -23.4166 C   0  0  0  0  0  0  0  0  0  0  0  0
    3.6022  -48.4404  -23.7349 C   0  0  0  0  0  0  0  0  0  0  0  0
    3.5975  -47.6687  -24.9124 C   0  0  0  0  0  0  0  0  0  0  0  0
    4.6380  -47.6562  -25.8029 C   0  0  0  0  0  0  0  0  0  0  0  0
    5.7208  -48.4754  -25.4557 C   0  0  0  0  0  0  0  0  0  0  0  0
    6.8840  -48.5105  -26.3751 C   0  0  0  0  0  0  0  0  0  0  0  0
    5.7307  -49.2325  -24.3056 C   0  0  0  0  0  0  0  0  0  0  0  0
    4.7206  -46.9295  -26.9857 N   0  0  0  0  0  0  0  0  0  0  0  0
    4.2782  -47.2719  -28.2897 C   0  0  0  0  0  0  0  0  0  0  0  0
    3.7380  -48.3443  -28.4432 O   0  0  0  0  0  0  0  0  0  0  0  0
    5.1723  -45.9598  -26.9320 H   0  0  0  0  0  0  0  0  0  0  0  0
    4.5076  -46.2886  -29.3741 C   0  0  0  0  0  0  0  0  0  0  0  0
    3.5233  -45.1001  -29.3913 C   0  0  0  0  0  0  0  0  0  0  0  0
    3.3724  -46.1560  -30.3835 C   0  0  0  0  0  0  0  0  0  0  0  0
    5.8065  -45.8877  -29.9091 C   0  0  0  0  0  0  0  0  0  0  0  0
    6.7201  -45.7234  -28.9175 O   0  0  0  0  0  0  0  0  0  0  0  0
    6.3619  -45.6303  -31.1460 N   0  0  0  0  0  0  0  0  0  0  0  0
    7.8136  -45.2224  -31.1447 C   0  0  0  0  0  0  0  0  0  0  0  0
    8.6222  -46.1383  -32.0134 C   0  0  0  0  0  0  0  0  0  0  0  0
    8.0630  -46.2253  -33.3566 N   0  0  0  0  0  0  0  0  0  0  0  0
    7.8709  -47.5678  -33.8107 C   0  0  0  0  0  0  0  0  0  0  0  0
    6.9221  -45.3733  -33.5016 C   0  0  0  0  0  0  0  0  0  0  0  0
    5.8229  -45.6809  -32.4686 C   0  0  0  0  0  0  0  0  0  0  0  0
 23 24  1  0  0  0
 24 21  1  0  0  0
 21 11  1  0  0  0
 11 12  2  0  0  0
 12 13  1  0  0  0
 13 14  2  0  0  0
 14 15  1  0  0  0
 15 16  2  0  0  0
 16 17  1  0  0  0
 17 18  2  0  0  0
 18  9  1  0  0  0
  9  1  1  0  0  0
  1  2  2  0  0  0
  2  3  1  0  0  0
  3 25  1  0  0  0
 25 26  1  0  0  0
 26 27  2  0  0  0
 27 28  1  0  0  0
 28 29  2  0  0  0
 29 33  1  0  0  0
 33 34  1  0  0  0
 34 35  2  0  0  0
 34 37  1  0  0  0
 37 38  1  0  0  0
 38 39  1  0  0  0
 37 40  1  0  0  0
 40 41  2  0  0  0
 40 42  1  0  0  0
 42 43  1  0  0  0
 43 44  1  0  0  0
 44 45  1  0  0  0
 45 46  1  0  0  0
 45 47  1  0  0  0
 47 48  1  0  0  0
 29 30  1  0  0  0
 30 31  1  0  0  0
 30 32  2  0  0  0
  3  4  2  0  0  0
  4  5  1  0  0  0
  4  6  1  0  0  0
  6  7  2  0  0  0
  7  8  1  0  0  0
 18 19  1  0  0  0
 19 20  2  0  0  0
 20 11  1  0  0  0
 19 14  1  0  0  0
  7  1  1  0  0  0
 32 26  1  0  0  0
 39 37  1  0  0  0
 48 42  1  0  0  0
 21 22  1  0  0  0
  9 10  1  0  0  0
 33 36  1  0  0  0
M  END
> <minimizedAffinity>
-7.62247

> <CNNscore>
0.1871682256

> <CNNaffinity>
7.3343420029

> <CNN_VS>
1.3727557659

> <CNNaffinity_variance>
0.2001785040

$$$$
[H]c1nc([H])c2c([H])c([H])c(N([H])C([H])([H])C([H])([H])[H])nc2c1N([H])c1c([H])c(Oc2c([H])c([H])c(N([H])C(=O)C3(C(=O)N4C([H])([H])C([H])([H])N(C([H])([H])[H])C([H])([H])C4([H])[H])C([H])([H])C3([H])[H])c(C([H])([H])[H])c2[H])c(Cl)c([H])c1Cl


 48 53  0  0  0  0  0  0  0  0999 V2000
    1.1311  -50.9506  -20.8881 C   0  0  0  0  0  0  0  0  0  0  0  0
    2.1759  -50.6197  -21.7147 C   0  0  0  0  0  0  0  0  0  0  0  0
    3.4080  -50.1423  -21.2421 C   0  0  0  0  0  0  0  0  0  0  0  0
    3.5359  -50.0110  -19.8823 C   0  0  0  0  0  0  0  0  0  0  0  0
    5.0251  -49.3898  -19.1970 Cl  0  0  0  0  0  0  0  0  0  0  0  0
    2.4782  -50.3438  -19.0279 C   0  0  0  0  0  0  0  0  0  0  0  0
    1.2834  -50.8088  -19.4976 C   0  0  0  0  0  0  0  0  0  0  0  0
   -0.0365  -51.2252  -18.3985 Cl  0  0  0  0  0  0  0  0  0  0  0  0
   -0.1218  -51.3599  -21.3412 N   0  0  0  0  0  0  0  0  0  0  0  0
   -0.8784  -50.5844  -21.4457 H   0  0  0  0  0  0  0  0  0  0  0  0
    0.5579  -52.7287  -25.1742 C   0  0  0  0  0  0  0  0  0  0  0  0
    0.0989  -53.9364  -25.6379 C   0  0  0  0  0  0  0  0  0  0  0  0
   -0.6128  -54.7334  -24.7401 C   0  0  0  0  0  0  0  0  0  0  0  0
   -0.8282  -54.2979  -23.4506 C   0  0  0  0  0  0  0  0  0  0  0  0
   -1.5234  -55.0652  -22.5408 C   0  0  0  0  0  0  0  0  0  0  0  0
   -1.7224  -54.6309  -21.2872 N   0  0  0  0  0  0  0  0  0  0  0  0
   -1.2624  -53.4305  -20.8388 C   0  0  0  0  0  0  0  0  0  0  0  0
   -0.5686  -52.6301  -21.6892 C   0  0  0  0  0  0  0  0  0  0  0  0
   -0.3623  -53.0889  -23.0043 C   0  0  0  0  0  0  0  0  0  0  0  0
    0.3192  -52.3370  -23.8818 N   0  0  0  0  0  0  0  0  0  0  0  0
    1.2853  -51.8671  -26.0382 N   0  0  0  0  0  0  0  0  0  0  0  0
    1.6135  -50.9255  -25.6600 H   0  0  0  0  0  0  0  0  0  0  0  0
    2.9794  -52.7717  -27.5994 C   0  0  0  0  0  0  0  0  0  0  0  0
    1.5668  -52.2661  -27.3900 C   0  0  0  0  0  0  0  0  0  0  0  0
    4.4213  -49.8261  -22.1256 O   0  0  0  0  0  0  0  0  0  0  0  0
    4.1862  -49.3779  -23.4024 C   0  0  0  0  0  0  0  0  0  0  0  0
    4.3071  -50.1391  -24.5279 C   0  0  0  0  0  0  0  0  0  0  0  0
    4.0477  -49.5981  -25.8015 C   0  0  0  0  0  0  0  0  0  0  0  0
    3.6634  -48.2982  -25.9981 C   0  0  0  0  0  0  0  0  0  0  0  0
    3.5452  -47.5353  -24.8284 C   0  0  0  0  0  0  0  0  0  0  0  0
    3.1319  -46.1176  -24.9665 C   0  0  0  0  0  0  0  0  0  0  0  0
    3.7980  -48.0591  -23.5804 C   0  0  0  0  0  0  0  0  0  0  0  0
    3.3876  -47.6800  -27.2129 N   0  0  0  0  0  0  0  0  0  0  0  0
    4.2804  -47.1717  -28.1916 C   0  0  0  0  0  0  0  0  0  0  0  0
    5.4687  -47.2734  -27.9844 O   0  0  0  0  0  0  0  0  0  0  0  0
    2.3565  -47.5657  -27.4791 H   0  0  0  0  0  0  0  0  0  0  0  0
    3.6930  -46.5525  -29.4028 C   0  0  0  0  0  0  0  0  0  0  0  0
    3.4272  -45.0363  -29.2925 C   0  0  0  0  0  0  0  0  0  0  0  0
    2.3010  -45.9574  -29.2198 C   0  0  0  0  0  0  0  0  0  0  0  0
    3.9856  -46.9235  -30.7851 C   0  0  0  0  0  0  0  0  0  0  0  0
    2.8511  -47.2357  -31.4637 O   0  0  0  0  0  0  0  0  0  0  0  0
    5.0983  -47.0437  -31.5925 N   0  0  0  0  0  0  0  0  0  0  0  0
    4.8397  -47.4922  -33.0088 C   0  0  0  0  0  0  0  0  0  0  0  0
    5.3936  -46.5013  -33.9879 C   0  0  0  0  0  0  0  0  0  0  0  0
    6.8030  -46.2333  -33.7307 N   0  0  0  0  0  0  0  0  0  0  0  0
    7.1142  -44.8400  -33.6447 C   0  0  0  0  0  0  0  0  0  0  0  0
    7.2939  -47.0264  -32.6450 C   0  0  0  0  0  0  0  0  0  0  0  0
    6.4881  -46.8150  -31.3505 C   0  0  0  0  0  0  0  0  0  0  0  0
 23 24  1  0  0  0
 24 21  1  0  0  0
 21 11  1  0  0  0
 11 12  2  0  0  0
 12 13  1  0  0  0
 13 14  2  0  0  0
 14 15  1  0  0  0
 15 16  2  0  0  0
 16 17  1  0  0  0
 17 18  2  0  0  0
 18  9  1  0  0  0
  9  1  1  0  0  0
  1  2  2  0  0  0
  2  3  1  0  0  0
  3 25  1  0  0  0
 25 26  1  0  0  0
 26 27  2  0  0  0
 27 28  1  0  0  0
 28 29  2  0  0  0
 29 33  1  0  0  0
 33 34  1  0  0  0
 34 35  2  0  0  0
 34 37  1  0  0  0
 37 38  1  0  0  0
 38 39  1  0  0  0
 37 40  1  0  0  0
 40 41  2  0  0  0
 40 42  1  0  0  0
 42 43  1  0  0  0
 43 44  1  0  0  0
 44 45  1  0  0  0
 45 46  1  0  0  0
 45 47  1  0  0  0
 47 48  1  0  0  0
 29 30  1  0  0  0
 30 31  1  0  0  0
 30 32  2  0  0  0
  3  4  2  0  0  0
  4  5  1  0  0  0
  4  6  1  0  0  0
  6  7  2  0  0  0
  7  8  1  0  0  0
 18 19  1  0  0  0
 19 20  2  0  0  0
 20 11  1  0  0  0
 19 14  1  0  0  0
  7  1  1  0  0  0
 32 26  1  0  0  0
 39 37  1  0  0  0
 48 42  1  0  0  0
 21 22  1  0  0  0
  9 10  1  0  0  0
 33 36  1  0  0  0
M  END
> <minimizedAffinity>
-8.59054

> <CNNscore>
0.1811907440

> <CNNaffinity>
7.4008092880

> <CNN_VS>
1.3409581184

> <CNNaffinity_variance>
0.1925531328

$$$$
[H]c1nc([H])c2c([H])c([H])c(N([H])C([H])([H])C([H])([H])[H])nc2c1N([H])c1c([H])c(Oc2c([H])c([H])c(N([H])C(=O)C3(C(=O)N4C([H])([H])C([H])([H])N(C([H])([H])[H])C([H])([H])C4([H])[H])C([H])([H])C3([H])[H])c(C([H])([H])[H])c2[H])c(Cl)c([H])c1Cl


 48 53  0  0  0  0  0  0  0  0999 V2000
    0.7882  -51.5812  -20.3739 C   0  0  0  0  0  0  0  0  0  0  0  0
    2.0372  -51.2202  -20.8145 C   0  0  0  0  0  0  0  0  0  0  0  0
    3.0918  -50.8914  -19.9490 C   0  0  0  0  0  0  0  0  0  0  0  0
    2.8224  -50.9421  -18.6045 C   0  0  0  0  0  0  0  0  0  0  0  0
    4.0651  -50.5154  -17.4440 Cl  0  0  0  0  0  0  0  0  0  0  0  0
    1.5529  -51.3076  -18.1416 C   0  0  0  0  0  0  0  0  0  0  0  0
    0.5335  -51.6271  -18.9920 C   0  0  0  0  0  0  0  0  0  0  0  0
   -1.0603  -52.0885  -18.3833 Cl  0  0  0  0  0  0  0  0  0  0  0  0
   -0.2900  -51.8437  -21.2174 N   0  0  0  0  0  0  0  0  0  0  0  0
   -0.9941  -51.0287  -21.3746 H   0  0  0  0  0  0  0  0  0  0  0  0
    0.7389  -52.1555  -25.2012 C   0  0  0  0  0  0  0  0  0  0  0  0
    0.4035  -53.2302  -25.9865 C   0  0  0  0  0  0  0  0  0  0  0  0
   -0.3028  -54.2678  -25.3763 C   0  0  0  0  0  0  0  0  0  0  0  0
   -0.6339  -54.1863  -24.0412 C   0  0  0  0  0  0  0  0  0  0  0  0
   -1.3270  -55.1973  -23.4107 C   0  0  0  0  0  0  0  0  0  0  0  0
   -1.6392  -55.1069  -22.1092 N   0  0  0  0  0  0  0  0  0  0  0  0
   -1.3013  -54.0353  -21.3405 C   0  0  0  0  0  0  0  0  0  0  0  0
   -0.6160  -53.0074  -21.9054 C   0  0  0  0  0  0  0  0  0  0  0  0
   -0.2906  -53.1055  -23.2719 C   0  0  0  0  0  0  0  0  0  0  0  0
    0.3878  -52.1184  -23.8761 N   0  0  0  0  0  0  0  0  0  0  0  0
    1.4538  -51.0633  -25.7614 N   0  0  0  0  0  0  0  0  0  0  0  0
    0.9557  -50.4363  -26.4658 H   0  0  0  0  0  0  0  0  0  0  0  0
    3.6587  -52.0732  -25.2669 C   0  0  0  0  0  0  0  0  0  0  0  0
    2.8177  -50.8182  -25.3798 C   0  0  0  0  0  0  0  0  0  0  0  0
    4.3267  -50.5356  -20.4544 O   0  0  0  0  0  0  0  0  0  0  0  0
    4.4789  -49.7292  -21.5558 C   0  0  0  0  0  0  0  0  0  0  0  0
    3.7991  -48.5654  -21.7669 C   0  0  0  0  0  0  0  0  0  0  0  0
    4.0155  -47.7987  -22.9276 C   0  0  0  0  0  0  0  0  0  0  0  0
    4.9043  -48.1571  -23.9062 C   0  0  0  0  0  0  0  0  0  0  0  0
    5.5914  -49.3552  -23.6682 C   0  0  0  0  0  0  0  0  0  0  0  0
    6.5709  -49.8046  -24.6870 C   0  0  0  0  0  0  0  0  0  0  0  0
    5.3834  -50.1093  -22.5350 C   0  0  0  0  0  0  0  0  0  0  0  0
    5.1821  -47.4660  -25.0805 N   0  0  0  0  0  0  0  0  0  0  0  0
    4.3100  -47.0855  -26.1332 C   0  0  0  0  0  0  0  0  0  0  0  0
    3.1399  -47.3801  -26.0363 O   0  0  0  0  0  0  0  0  0  0  0  0
    6.1950  -47.1543  -25.2352 H   0  0  0  0  0  0  0  0  0  0  0  0
    4.8950  -46.3503  -27.2789 C   0  0  0  0  0  0  0  0  0  0  0  0
    5.1850  -44.8581  -27.0126 C   0  0  0  0  0  0  0  0  0  0  0  0
    4.0363  -45.2184  -27.8329 C   0  0  0  0  0  0  0  0  0  0  0  0
    5.8383  -46.8907  -28.2547 C   0  0  0  0  0  0  0  0  0  0  0  0
    5.2807  -46.9677  -29.4909 O   0  0  0  0  0  0  0  0  0  0  0  0
    7.1415  -47.3444  -28.2667 N   0  0  0  0  0  0  0  0  0  0  0  0
    7.6592  -47.8269  -29.5983 C   0  0  0  0  0  0  0  0  0  0  0  0
    8.9025  -47.0836  -29.9844 C   0  0  0  0  0  0  0  0  0  0  0  0
    9.9083  -47.1504  -28.9316 N   0  0  0  0  0  0  0  0  0  0  0  0
   10.4400  -45.8740  -28.5663 C   0  0  0  0  0  0  0  0  0  0  0  0
    9.4595  -47.9507  -27.8330 C   0  0  0  0  0  0  0  0  0  0  0  0
    8.1314  -47.4455  -27.2409 C   0  0  0  0  0  0  0  0  0  0  0  0
 23 24  1  0  0  0
 24 21  1  0  0  0
 21 11  1  0  0  0
 11 12  2  0  0  0
 12 13  1  0  0  0
 13 14  2  0  0  0
 14 15  1  0  0  0
 15 16  2  0  0  0
 16 17  1  0  0  0
 17 18  2  0  0  0
 18  9  1  0  0  0
  9  1  1  0  0  0
  1  2  2  0  0  0
  2  3  1  0  0  0
  3 25  1  0  0  0
 25 26  1  0  0  0
 26 27  2  0  0  0
 27 28  1  0  0  0
 28 29  2  0  0  0
 29 33  1  0  0  0
 33 34  1  0  0  0
 34 35  2  0  0  0
 34 37  1  0  0  0
 37 38  1  0  0  0
 38 39  1  0  0  0
 37 40  1  0  0  0
 40 41  2  0  0  0
 40 42  1  0  0  0
 42 43  1  0  0  0
 43 44  1  0  0  0
 44 45  1  0  0  0
 45 46  1  0  0  0
 45 47  1  0  0  0
 47 48  1  0  0  0
 29 30  1  0  0  0
 30 31  1  0  0  0
 30 32  2  0  0  0
  3  4  2  0  0  0
  4  5  1  0  0  0
  4  6  1  0  0  0
  6  7  2  0  0  0
  7  8  1  0  0  0
 18 19  1  0  0  0
 19 20  2  0  0  0
 20 11  1  0  0  0
 19 14  1  0  0  0
  7  1  1  0  0  0
 32 26  1  0  0  0
 39 37  1  0  0  0
 48 42  1  0  0  0
 21 22  1  0  0  0
  9 10  1  0  0  0
 33 36  1  0  0  0
M  END
> <minimizedAffinity>
-7.25281

> <CNNscore>
0.1732155532

> <CNNaffinity>
7.3284502029

> <CNN_VS>
1.2694015503

> <CNNaffinity_variance>
0.2060033530

$$$$
[H]c1nc([H])c2c([H])c([H])c(N([H])C([H])([H])C([H])([H])[H])nc2c1N([H])c1c([H])c(Oc2c([H])c([H])c(N([H])C(=O)C3(C(=O)N4C([H])([H])C([H])([H])N(C([H])([H])[H])C([H])([H])C4([H])[H])C([H])([H])C3([H])[H])c(C([H])([H])[H])c2[H])c(Cl)c([H])c1Cl


 48 53  0  0  0  0  0  0  0  0999 V2000
    0.4768  -50.9935  -20.8582 C   0  0  0  0  0  0  0  0  0  0  0  0
    1.1741  -49.9427  -21.4003 C   0  0  0  0  0  0  0  0  0  0  0  0
    2.2777  -49.3467  -20.7710 C   0  0  0  0  0  0  0  0  0  0  0  0
    2.6463  -49.8652  -19.5553 C   0  0  0  0  0  0  0  0  0  0  0  0
    3.9913  -49.1661  -18.6746 Cl  0  0  0  0  0  0  0  0  0  0  0  0
    1.9435  -50.9360  -18.9904 C   0  0  0  0  0  0  0  0  0  0  0  0
    0.8714  -51.5099  -19.6114 C   0  0  0  0  0  0  0  0  0  0  0  0
    0.0018  -52.8633  -18.8795 Cl  0  0  0  0  0  0  0  0  0  0  0  0
   -0.6625  -51.5529  -21.4342 N   0  0  0  0  0  0  0  0  0  0  0  0
   -1.5588  -50.9354  -21.4378 H   0  0  0  0  0  0  0  0  0  0  0  0
    0.7052  -52.1648  -25.2790 C   0  0  0  0  0  0  0  0  0  0  0  0
    0.5196  -53.3364  -25.9697 C   0  0  0  0  0  0  0  0  0  0  0  0
   -0.1499  -54.3661  -25.3068 C   0  0  0  0  0  0  0  0  0  0  0  0
   -0.5928  -54.1826  -24.0149 C   0  0  0  0  0  0  0  0  0  0  0  0
   -1.2528  -55.1828  -23.3337 C   0  0  0  0  0  0  0  0  0  0  0  0
   -1.6750  -54.9922  -22.0748 N   0  0  0  0  0  0  0  0  0  0  0  0
   -1.4853  -53.8251  -21.4000 C   0  0  0  0  0  0  0  0  0  0  0  0
   -0.8396  -52.8024  -22.0185 C   0  0  0  0  0  0  0  0  0  0  0  0
   -0.3985  -53.0058  -23.3401 C   0  0  0  0  0  0  0  0  0  0  0  0
    0.2467  -52.0281  -23.9938 N   0  0  0  0  0  0  0  0  0  0  0  0
    1.3749  -51.0753  -25.8973 N   0  0  0  0  0  0  0  0  0  0  0  0
    0.8279  -50.1779  -26.0782 H   0  0  0  0  0  0  0  0  0  0  0  0
    3.6170  -51.8791  -25.2243 C   0  0  0  0  0  0  0  0  0  0  0  0
    2.7592  -51.1913  -26.2664 C   0  0  0  0  0  0  0  0  0  0  0  0
    2.9379  -48.2909  -21.3683 O   0  0  0  0  0  0  0  0  0  0  0  0
    3.7408  -48.4407  -22.4725 C   0  0  0  0  0  0  0  0  0  0  0  0
    4.9665  -49.0395  -22.4668 C   0  0  0  0  0  0  0  0  0  0  0  0
    5.7261  -49.1496  -23.6470 C   0  0  0  0  0  0  0  0  0  0  0  0
    5.2990  -48.6748  -24.8587 C   0  0  0  0  0  0  0  0  0  0  0  0
    4.0376  -48.0643  -24.8410 C   0  0  0  0  0  0  0  0  0  0  0  0
    3.5115  -47.5272  -26.1194 C   0  0  0  0  0  0  0  0  0  0  0  0
    3.2906  -47.9535  -23.6897 C   0  0  0  0  0  0  0  0  0  0  0  0
    5.9780  -48.7381  -26.0706 N   0  0  0  0  0  0  0  0  0  0  0  0
    6.9471  -47.8536  -26.6110 C   0  0  0  0  0  0  0  0  0  0  0  0
    7.2656  -46.8888  -25.9529 O   0  0  0  0  0  0  0  0  0  0  0  0
    5.7643  -49.5730  -26.7066 H   0  0  0  0  0  0  0  0  0  0  0  0
    7.5037  -48.1758  -27.9459 C   0  0  0  0  0  0  0  0  0  0  0  0
    8.7862  -49.0339  -27.9243 C   0  0  0  0  0  0  0  0  0  0  0  0
    8.8929  -47.6126  -28.2251 C   0  0  0  0  0  0  0  0  0  0  0  0
    6.7314  -48.4365  -29.1582 C   0  0  0  0  0  0  0  0  0  0  0  0
    5.4337  -48.7131  -28.8675 O   0  0  0  0  0  0  0  0  0  0  0  0
    6.9572  -48.4786  -30.5190 N   0  0  0  0  0  0  0  0  0  0  0  0
    5.7641  -48.8221  -31.3748 C   0  0  0  0  0  0  0  0  0  0  0  0
    5.5180  -47.7517  -32.3951 C   0  0  0  0  0  0  0  0  0  0  0  0
    6.7159  -47.4831  -33.1809 N   0  0  0  0  0  0  0  0  0  0  0  0
    7.0575  -46.0959  -33.2475 C   0  0  0  0  0  0  0  0  0  0  0  0
    7.7912  -48.3489  -32.8030 C   0  0  0  0  0  0  0  0  0  0  0  0
    8.1287  -48.2483  -31.3044 C   0  0  0  0  0  0  0  0  0  0  0  0
 23 24  1  0  0  0
 24 21  1  0  0  0
 21 11  1  0  0  0
 11 12  2  0  0  0
 12 13  1  0  0  0
 13 14  2  0  0  0
 14 15  1  0  0  0
 15 16  2  0  0  0
 16 17  1  0  0  0
 17 18  2  0  0  0
 18  9  1  0  0  0
  9  1  1  0  0  0
  1  2  2  0  0  0
  2  3  1  0  0  0
  3 25  1  0  0  0
 25 26  1  0  0  0
 26 27  2  0  0  0
 27 28  1  0  0  0
 28 29  2  0  0  0
 29 33  1  0  0  0
 33 34  1  0  0  0
 34 35  2  0  0  0
 34 37  1  0  0  0
 37 38  1  0  0  0
 38 39  1  0  0  0
 37 40  1  0  0  0
 40 41  2  0  0  0
 40 42  1  0  0  0
 42 43  1  0  0  0
 43 44  1  0  0  0
 44 45  1  0  0  0
 45 46  1  0  0  0
 45 47  1  0  0  0
 47 48  1  0  0  0
 29 30  1  0  0  0
 30 31  1  0  0  0
 30 32  2  0  0  0
  3  4  2  0  0  0
  4  5  1  0  0  0
  4  6  1  0  0  0
  6  7  2  0  0  0
  7  8  1  0  0  0
 18 19  1  0  0  0
 19 20  2  0  0  0
 20 11  1  0  0  0
 19 14  1  0  0  0
  7  1  1  0  0  0
 32 26  1  0  0  0
 39 37  1  0  0  0
 48 42  1  0  0  0
 21 22  1  0  0  0
  9 10  1  0  0  0
 33 36  1  0  0  0
M  END
> <minimizedAffinity>
-8.24369

> <CNNscore>
0.1411517411

> <CNNaffinity>
7.2675499916

> <CNN_VS>
1.0258272886

> <CNNaffinity_variance>
0.2743692696

$$$$
[H]c1nc([H])c2c([H])c([H])c(N([H])C([H])([H])C([H])([H])[H])nc2c1N([H])c1c([H])c(Oc2c([H])c([H])c(N([H])C(=O)C3(C(=O)N4C([H])([H])C([H])([H])N(C([H])([H])[H])C([H])([H])C4([H])[H])C([H])([H])C3([H])[H])c(C([H])([H])[H])c2[H])c(Cl)c([H])c1Cl


 48 53  0  0  0  0  0  0  0  0999 V2000
    0.7546  -51.5995  -20.3882 C   0  0  0  0  0  0  0  0  0  0  0  0
    2.0024  -51.2206  -20.8167 C   0  0  0  0  0  0  0  0  0  0  0  0
    3.0498  -50.8960  -19.9409 C   0  0  0  0  0  0  0  0  0  0  0  0
    2.7743  -50.9702  -18.5988 C   0  0  0  0  0  0  0  0  0  0  0  0
    4.0074  -50.5507  -17.4254 Cl  0  0  0  0  0  0  0  0  0  0  0  0
    1.5058  -51.3543  -18.1480 C   0  0  0  0  0  0  0  0  0  0  0  0
    0.4935  -51.6694  -19.0084 C   0  0  0  0  0  0  0  0  0  0  0  0
   -1.0990  -52.1545  -18.4151 Cl  0  0  0  0  0  0  0  0  0  0  0  0
   -0.3170  -51.8584  -21.2410 N   0  0  0  0  0  0  0  0  0  0  0  0
   -1.0381  -51.0539  -21.3740 H   0  0  0  0  0  0  0  0  0  0  0  0
    0.8117  -52.0644  -25.2047 C   0  0  0  0  0  0  0  0  0  0  0  0
    0.5034  -53.1214  -26.0244 C   0  0  0  0  0  0  0  0  0  0  0  0
   -0.2103  -54.1784  -25.4577 C   0  0  0  0  0  0  0  0  0  0  0  0
   -0.5747  -54.1322  -24.1295 C   0  0  0  0  0  0  0  0  0  0  0  0
   -1.2758  -55.1631  -23.5415 C   0  0  0  0  0  0  0  0  0  0  0  0
   -1.6206  -55.1071  -22.2463 N   0  0  0  0  0  0  0  0  0  0  0  0
   -1.3094  -54.0528  -21.4432 C   0  0  0  0  0  0  0  0  0  0  0  0
   -0.6178  -53.0067  -21.9655 C   0  0  0  0  0  0  0  0  0  0  0  0
   -0.2582  -53.0687  -23.3255 C   0  0  0  0  0  0  0  0  0  0  0  0
    0.4278  -52.0625  -23.8882 N   0  0  0  0  0  0  0  0  0  0  0  0
    1.5324  -50.9539  -25.7199 N   0  0  0  0  0  0  0  0  0  0  0  0
    1.0924  -50.3811  -26.5045 H   0  0  0  0  0  0  0  0  0  0  0  0
    3.7365  -51.8133  -24.9925 C   0  0  0  0  0  0  0  0  0  0  0  0
    2.8249  -50.6192  -25.1877 C   0  0  0  0  0  0  0  0  0  0  0  0
    4.2839  -50.5213  -20.4344 O   0  0  0  0  0  0  0  0  0  0  0  0
    4.4379  -49.5917  -21.4337 C   0  0  0  0  0  0  0  0  0  0  0  0
    3.6974  -48.4525  -21.5563 C   0  0  0  0  0  0  0  0  0  0  0  0
    3.9207  -47.5521  -22.6153 C   0  0  0  0  0  0  0  0  0  0  0  0
    4.8760  -47.7498  -23.5766 C   0  0  0  0  0  0  0  0  0  0  0  0
    5.6247  -48.9255  -23.4305 C   0  0  0  0  0  0  0  0  0  0  0  0
    6.6781  -49.2039  -24.4367 C   0  0  0  0  0  0  0  0  0  0  0  0
    5.4103  -49.8099  -22.3972 C   0  0  0  0  0  0  0  0  0  0  0  0
    5.1659  -46.9194  -24.6538 N   0  0  0  0  0  0  0  0  0  0  0  0
    4.4624  -46.7420  -25.8733 C   0  0  0  0  0  0  0  0  0  0  0  0
    3.4506  -47.3842  -26.0442 O   0  0  0  0  0  0  0  0  0  0  0  0
    6.0391  -46.3043  -24.5745 H   0  0  0  0  0  0  0  0  0  0  0  0
    5.0168  -45.7788  -26.8531 C   0  0  0  0  0  0  0  0  0  0  0  0
    6.5448  -45.8632  -27.0528 C   0  0  0  0  0  0  0  0  0  0  0  0
    5.9939  -44.7575  -26.2808 C   0  0  0  0  0  0  0  0  0  0  0  0
    4.3626  -45.3285  -28.0793 C   0  0  0  0  0  0  0  0  0  0  0  0
    3.9479  -44.0394  -27.9733 O   0  0  0  0  0  0  0  0  0  0  0  0
    4.0502  -45.8524  -29.3171 N   0  0  0  0  0  0  0  0  0  0  0  0
    3.3277  -44.9253  -30.2619 C   0  0  0  0  0  0  0  0  0  0  0  0
    4.0819  -44.7888  -31.5504 C   0  0  0  0  0  0  0  0  0  0  0  0
    4.3597  -46.0914  -32.1424 N   0  0  0  0  0  0  0  0  0  0  0  0
    5.7323  -46.2771  -32.4986 C   0  0  0  0  0  0  0  0  0  0  0  0
    3.7935  -47.1493  -31.3619 C   0  0  0  0  0  0  0  0  0  0  0  0
    4.2870  -47.1338  -29.9038 C   0  0  0  0  0  0  0  0  0  0  0  0
 23 24  1  0  0  0
 24 21  1  0  0  0
 21 11  1  0  0  0
 11 12  2  0  0  0
 12 13  1  0  0  0
 13 14  2  0  0  0
 14 15  1  0  0  0
 15 16  2  0  0  0
 16 17  1  0  0  0
 17 18  2  0  0  0
 18  9  1  0  0  0
  9  1  1  0  0  0
  1  2  2  0  0  0
  2  3  1  0  0  0
  3 25  1  0  0  0
 25 26  1  0  0  0
 26 27  2  0  0  0
 27 28  1  0  0  0
 28 29  2  0  0  0
 29 33  1  0  0  0
 33 34  1  0  0  0
 34 35  2  0  0  0
 34 37  1  0  0  0
 37 38  1  0  0  0
 38 39  1  0  0  0
 37 40  1  0  0  0
 40 41  2  0  0  0
 40 42  1  0  0  0
 42 43  1  0  0  0
 43 44  1  0  0  0
 44 45  1  0  0  0
 45 46  1  0  0  0
 45 47  1  0  0  0
 47 48  1  0  0  0
 29 30  1  0  0  0
 30 31  1  0  0  0
 30 32  2  0  0  0
  3  4  2  0  0  0
  4  5  1  0  0  0
  4  6  1  0  0  0
  6  7  2  0  0  0
  7  8  1  0  0  0
 18 19  1  0  0  0
 19 20  2  0  0  0
 20 11  1  0  0  0
 19 14  1  0  0  0
  7  1  1  0  0  0
 32 26  1  0  0  0
 39 37  1  0  0  0
 48 42  1  0  0  0
 21 22  1  0  0  0
  9 10  1  0  0  0
 33 36  1  0  0  0
M  END
> <minimizedAffinity>
-7.77038

> <CNNscore>
0.1125570908

> <CNNaffinity>
7.1875901222

> <CNN_VS>
0.8090142608

> <CNNaffinity_variance>
0.2574681640

$$$$
[H]c1nc([H])c2c([H])c([H])c(N([H])C([H])([H])C([H])([H])[H])nc2c1N([H])c1c([H])c(Oc2c([H])c([H])c(N([H])C(=O)C3(C(=O)N4C([H])([H])C([H])([H])N(C([H])([H])[H])C([H])([H])C4([H])[H])C([H])([H])C3([H])[H])c(C([H])([H])[H])c2[H])c(Cl)c([H])c1Cl


 48 53  0  0  0  0  0  0  0  0999 V2000
    0.8691  -52.0342  -21.6922 C   0  0  0  0  0  0  0  0  0  0  0  0
    1.1020  -50.6913  -21.8561 C   0  0  0  0  0  0  0  0  0  0  0  0
    1.1743  -49.7877  -20.7848 C   0  0  0  0  0  0  0  0  0  0  0  0
    0.9961  -50.3087  -19.5280 C   0  0  0  0  0  0  0  0  0  0  0  0
    1.0342  -49.2545  -18.1278 Cl  0  0  0  0  0  0  0  0  0  0  0  0
    0.7569  -51.6760  -19.3466 C   0  0  0  0  0  0  0  0  0  0  0  0
    0.6895  -52.5473  -20.3957 C   0  0  0  0  0  0  0  0  0  0  0  0
    0.3892  -54.2703  -20.1410 Cl  0  0  0  0  0  0  0  0  0  0  0  0
    0.7251  -52.9345  -22.7464 N   0  0  0  0  0  0  0  0  0  0  0  0
    0.9925  -53.9696  -22.5419 H   0  0  0  0  0  0  0  0  0  0  0  0
    3.5155  -52.6312  -25.7710 C   0  0  0  0  0  0  0  0  0  0  0  0
    3.1899  -52.3483  -27.0742 C   0  0  0  0  0  0  0  0  0  0  0  0
    1.8361  -52.1809  -27.3693 C   0  0  0  0  0  0  0  0  0  0  0  0
    0.8920  -52.3011  -26.3728 C   0  0  0  0  0  0  0  0  0  0  0  0
   -0.4522  -52.1455  -26.6354 C   0  0  0  0  0  0  0  0  0  0  0  0
   -1.3612  -52.2693  -25.6566 N   0  0  0  0  0  0  0  0  0  0  0  0
   -1.0258  -52.5498  -24.3673 C   0  0  0  0  0  0  0  0  0  0  0  0
    0.2838  -52.7155  -24.0469 C   0  0  0  0  0  0  0  0  0  0  0  0
    1.2351  -52.5842  -25.0767 C   0  0  0  0  0  0  0  0  0  0  0  0
    2.5409  -52.7414  -24.8126 N   0  0  0  0  0  0  0  0  0  0  0  0
    4.8758  -52.8086  -25.4022 N   0  0  0  0  0  0  0  0  0  0  0  0
    5.5421  -53.2477  -26.1098 H   0  0  0  0  0  0  0  0  0  0  0  0
    5.6616  -50.9261  -24.0006 C   0  0  0  0  0  0  0  0  0  0  0  0
    5.3328  -52.4014  -24.1017 C   0  0  0  0  0  0  0  0  0  0  0  0
    1.4114  -48.4469  -21.0152 O   0  0  0  0  0  0  0  0  0  0  0  0
    2.4767  -47.9928  -21.7536 C   0  0  0  0  0  0  0  0  0  0  0  0
    3.7783  -48.3363  -21.5327 C   0  0  0  0  0  0  0  0  0  0  0  0
    4.8117  -47.8219  -22.3386 C   0  0  0  0  0  0  0  0  0  0  0  0
    4.5900  -46.9595  -23.3794 C   0  0  0  0  0  0  0  0  0  0  0  0
    3.2461  -46.6210  -23.5882 C   0  0  0  0  0  0  0  0  0  0  0  0
    2.9322  -45.6907  -24.6998 C   0  0  0  0  0  0  0  0  0  0  0  0
    2.2316  -47.1207  -22.8028 C   0  0  0  0  0  0  0  0  0  0  0  0
    5.5437  -46.4029  -24.2246 N   0  0  0  0  0  0  0  0  0  0  0  0
    6.1335  -46.9383  -25.3989 C   0  0  0  0  0  0  0  0  0  0  0  0
    5.7817  -48.0387  -25.7606 O   0  0  0  0  0  0  0  0  0  0  0  0
    5.8965  -45.4210  -23.9826 H   0  0  0  0  0  0  0  0  0  0  0  0
    7.1399  -46.1091  -26.1024 C   0  0  0  0  0  0  0  0  0  0  0  0
    8.5414  -46.1022  -25.4563 C   0  0  0  0  0  0  0  0  0  0  0  0
    7.6876  -44.9320  -25.3026 C   0  0  0  0  0  0  0  0  0  0  0  0
    7.2397  -45.9220  -27.5478 C   0  0  0  0  0  0  0  0  0  0  0  0
    7.0174  -44.6277  -27.8951 O   0  0  0  0  0  0  0  0  0  0  0  0
    7.4984  -46.6986  -28.6588 N   0  0  0  0  0  0  0  0  0  0  0  0
    7.4713  -45.9816  -29.9851 C   0  0  0  0  0  0  0  0  0  0  0  0
    8.7686  -46.1655  -30.7136 C   0  0  0  0  0  0  0  0  0  0  0  0
    9.1080  -47.5770  -30.8435 N   0  0  0  0  0  0  0  0  0  0  0  0
   10.4366  -47.8880  -30.4151 C   0  0  0  0  0  0  0  0  0  0  0  0
    8.0868  -48.4112  -30.2866 C   0  0  0  0  0  0  0  0  0  0  0  0
    7.8030  -48.0868  -28.8088 C   0  0  0  0  0  0  0  0  0  0  0  0
 23 24  1  0  0  0
 24 21  1  0  0  0
 21 11  1  0  0  0
 11 12  2  0  0  0
 12 13  1  0  0  0
 13 14  2  0  0  0
 14 15  1  0  0  0
 15 16  2  0  0  0
 16 17  1  0  0  0
 17 18  2  0  0  0
 18  9  1  0  0  0
  9  1  1  0  0  0
  1  2  2  0  0  0
  2  3  1  0  0  0
  3 25  1  0  0  0
 25 26  1  0  0  0
 26 27  2  0  0  0
 27 28  1  0  0  0
 28 29  2  0  0  0
 29 33  1  0  0  0
 33 34  1  0  0  0
 34 35  2  0  0  0
 34 37  1  0  0  0
 37 38  1  0  0  0
 38 39  1  0  0  0
 37 40  1  0  0  0
 40 41  2  0  0  0
 40 42  1  0  0  0
 42 43  1  0  0  0
 43 44  1  0  0  0
 44 45  1  0  0  0
 45 46  1  0  0  0
 45 47  1  0  0  0
 47 48  1  0  0  0
 29 30  1  0  0  0
 30 31  1  0  0  0
 30 32  2  0  0  0
  3  4  2  0  0  0
  4  5  1  0  0  0
  4  6  1  0  0  0
  6  7  2  0  0  0
  7  8  1  0  0  0
 18 19  1  0  0  0
 19 20  2  0  0  0
 20 11  1  0  0  0
 19 14  1  0  0  0
  7  1  1  0  0  0
 32 26  1  0  0  0
 39 37  1  0  0  0
 48 42  1  0  0  0
 21 22  1  0  0  0
  9 10  1  0  0  0
 33 36  1  0  0  0
M  END
> <minimizedAffinity>
-7.03944

> <CNNscore>
0.0868939459

> <CNNaffinity>
7.2129349709

> <CNN_VS>
0.6267603636

> <CNNaffinity_variance>
0.4117697179

$$$$
[H]c1nc([H])c2c([H])c([H])c(N([H])C([H])([H])C([H])([H])[H])nc2c1N([H])c1c([H])c(Oc2c([H])c([H])c(N([H])C(=O)C3(C(=O)N4C([H])([H])C([H])([H])N(C([H])([H])[H])C([H])([H])C4([H])[H])C([H])([H])C3([H])[H])c(C([H])([H])[H])c2[H])c(Cl)c([H])c1Cl


 48 53  0  0  0  0  0  0  0  0999 V2000
    0.8489  -52.4579  -21.4226 C   0  0  0  0  0  0  0  0  0  0  0  0
    1.7410  -51.4233  -21.2882 C   0  0  0  0  0  0  0  0  0  0  0  0
    1.7393  -50.5447  -20.1939 C   0  0  0  0  0  0  0  0  0  0  0  0
    0.7834  -50.7606  -19.2336 C   0  0  0  0  0  0  0  0  0  0  0  0
    0.6782  -49.6953  -17.8452 Cl  0  0  0  0  0  0  0  0  0  0  0  0
   -0.1331  -51.8113  -19.3585 C   0  0  0  0  0  0  0  0  0  0  0  0
   -0.1224  -52.6617  -20.4268 C   0  0  0  0  0  0  0  0  0  0  0  0
   -1.2884  -53.9831  -20.5608 Cl  0  0  0  0  0  0  0  0  0  0  0  0
    0.7904  -53.2972  -22.5339 N   0  0  0  0  0  0  0  0  0  0  0  0
    1.1687  -54.3089  -22.3997 H   0  0  0  0  0  0  0  0  0  0  0  0
    3.4933  -52.3876  -25.5162 C   0  0  0  0  0  0  0  0  0  0  0  0
    3.1234  -52.0529  -26.7951 C   0  0  0  0  0  0  0  0  0  0  0  0
    1.7575  -52.0489  -27.0815 C   0  0  0  0  0  0  0  0  0  0  0  0
    0.8452  -52.3719  -26.1006 C   0  0  0  0  0  0  0  0  0  0  0  0
   -0.5094  -52.3807  -26.3553 C   0  0  0  0  0  0  0  0  0  0  0  0
   -1.3865  -52.7012  -25.3922 N   0  0  0  0  0  0  0  0  0  0  0  0
   -1.0075  -53.0312  -24.1269 C   0  0  0  0  0  0  0  0  0  0  0  0
    0.3147  -53.0415  -23.8154 C   0  0  0  0  0  0  0  0  0  0  0  0
    1.2324  -52.7040  -24.8287 C   0  0  0  0  0  0  0  0  0  0  0  0
    2.5492  -52.7021  -24.5726 N   0  0  0  0  0  0  0  0  0  0  0  0
    4.8676  -52.4063  -25.1572 N   0  0  0  0  0  0  0  0  0  0  0  0
    5.5123  -53.1004  -25.6468 H   0  0  0  0  0  0  0  0  0  0  0  0
    5.2029  -52.0119  -22.7369 C   0  0  0  0  0  0  0  0  0  0  0  0
    5.3667  -51.5049  -24.1550 C   0  0  0  0  0  0  0  0  0  0  0  0
    2.6639  -49.5218  -20.1165 O   0  0  0  0  0  0  0  0  0  0  0  0
    2.9777  -48.7163  -21.1838 C   0  0  0  0  0  0  0  0  0  0  0  0
    2.0929  -47.9054  -21.8322 C   0  0  0  0  0  0  0  0  0  0  0  0
    2.4995  -47.1115  -22.9214 C   0  0  0  0  0  0  0  0  0  0  0  0
    3.7836  -47.0956  -23.3975 C   0  0  0  0  0  0  0  0  0  0  0  0
    4.6752  -47.9355  -22.7163 C   0  0  0  0  0  0  0  0  0  0  0  0
    6.0841  -47.9683  -23.1783 C   0  0  0  0  0  0  0  0  0  0  0  0
    4.2829  -48.7144  -21.6508 C   0  0  0  0  0  0  0  0  0  0  0  0
    4.2738  -46.3477  -24.4625 N   0  0  0  0  0  0  0  0  0  0  0  0
    4.2535  -46.6329  -25.8524 C   0  0  0  0  0  0  0  0  0  0  0  0
    3.7388  -47.6676  -26.2127 O   0  0  0  0  0  0  0  0  0  0  0  0
    4.7315  -45.4080  -24.2290 H   0  0  0  0  0  0  0  0  0  0  0  0
    4.8638  -45.6398  -26.7671 C   0  0  0  0  0  0  0  0  0  0  0  0
    6.4054  -45.6757  -26.8286 C   0  0  0  0  0  0  0  0  0  0  0  0
    5.7531  -44.5980  -26.0971 C   0  0  0  0  0  0  0  0  0  0  0  0
    4.3091  -45.1921  -28.0422 C   0  0  0  0  0  0  0  0  0  0  0  0
    3.9790  -43.8751  -28.0023 O   0  0  0  0  0  0  0  0  0  0  0  0
    4.0284  -45.7390  -29.2778 N   0  0  0  0  0  0  0  0  0  0  0  0
    3.4234  -44.8010  -30.2917 C   0  0  0  0  0  0  0  0  0  0  0  0
    4.2534  -44.7626  -31.5395 C   0  0  0  0  0  0  0  0  0  0  0  0
    4.4723  -46.1018  -32.0717 N   0  0  0  0  0  0  0  0  0  0  0  0
    5.8461  -46.3919  -32.3440 C   0  0  0  0  0  0  0  0  0  0  0  0
    3.7934  -47.0900  -31.2899 C   0  0  0  0  0  0  0  0  0  0  0  0
    4.2076  -47.0541  -29.8076 C   0  0  0  0  0  0  0  0  0  0  0  0
 23 24  1  0  0  0
 24 21  1  0  0  0
 21 11  1  0  0  0
 11 12  2  0  0  0
 12 13  1  0  0  0
 13 14  2  0  0  0
 14 15  1  0  0  0
 15 16  2  0  0  0
 16 17  1  0  0  0
 17 18  2  0  0  0
 18  9  1  0  0  0
  9  1  1  0  0  0
  1  2  2  0  0  0
  2  3  1  0  0  0
  3 25  1  0  0  0
 25 26  1  0  0  0
 26 27  2  0  0  0
 27 28  1  0  0  0
 28 29  2  0  0  0
 29 33  1  0  0  0
 33 34  1  0  0  0
 34 35  2  0  0  0
 34 37  1  0  0  0
 37 38  1  0  0  0
 38 39  1  0  0  0
 37 40  1  0  0  0
 40 41  2  0  0  0
 40 42  1  0  0  0
 42 43  1  0  0  0
 43 44  1  0  0  0
 44 45  1  0  0  0
 45 46  1  0  0  0
 45 47  1  0  0  0
 47 48  1  0  0  0
 29 30  1  0  0  0
 30 31  1  0  0  0
 30 32  2  0  0  0
  3  4  2  0  0  0
  4  5  1  0  0  0
  4  6  1  0  0  0
  6  7  2  0  0  0
  7  8  1  0  0  0
 18 19  1  0  0  0
 19 20  2  0  0  0
 20 11  1  0  0  0
 19 14  1  0  0  0
  7  1  1  0  0  0
 32 26  1  0  0  0
 39 37  1  0  0  0
 48 42  1  0  0  0
 21 22  1  0  0  0
  9 10  1  0  0  0
 33 36  1  0  0  0
M  END
> <minimizedAffinity>
-7.87575

> <CNNscore>
0.0836480707

> <CNNaffinity>
7.2968406677

> <CNN_VS>
0.6103666425

> <CNNaffinity_variance>
0.4793662131

$$$$
[H]/C(C(=O)N([H])c1c([H])c([H])c2c(c1[H])C([H])([H])[C@@]([H])(N([H])C(=O)c1c(OC([H])([H])C([H])([H])[H])c([H])c3c(N([H])c4c([H])c([H])c(F)c(Cl)c4[H])n([H])nc3c1[H])C2([H])[H])=C(/[H])C([H])([H])N1C([H])([H])C([H])([H])N([H])C([H])([H])C1([H])[H]


 50 55  0  0  0  0  0  0  0  0999 V2000
    2.2139  -49.4963  -22.1688 C   0  0  0  0  0  0  0  0  0  0  0  0
    1.8037  -48.2444  -22.0911 O   0  0  0  0  0  0  0  0  0  0  0  0
    3.2744  -49.7698  -23.0278 N   0  0  0  0  0  0  0  0  0  0  0  0
    3.6732  -50.6888  -23.1920 H   0  0  0  0  0  0  0  0  0  0  0  0
    1.4948  -50.3067  -19.9142 C   0  0  0  0  0  0  0  0  0  0  0  0
    0.7119  -51.1604  -19.1264 C   0  0  0  0  0  0  0  0  0  0  0  0
   -0.1004  -52.0978  -19.6795 C   0  0  0  0  0  0  0  0  0  0  0  0
   -0.9714  -53.0477  -19.1349 C   0  0  0  0  0  0  0  0  0  0  0  0
   -1.4911  -53.6703  -20.1913 N   0  0  0  0  0  0  0  0  0  0  0  0
   -1.0077  -53.1760  -21.3419 N   0  0  0  0  0  0  0  0  0  0  0  0
   -0.1286  -52.1826  -21.0457 C   0  0  0  0  0  0  0  0  0  0  0  0
    0.6250  -51.3624  -21.8501 C   0  0  0  0  0  0  0  0  0  0  0  0
    1.4671  -50.3900  -21.3153 C   0  0  0  0  0  0  0  0  0  0  0  0
   -2.1823  -54.4674  -20.1235 H   0  0  0  0  0  0  0  0  0  0  0  0
   -1.1786  -53.2802  -17.7416 N   0  0  0  0  0  0  0  0  0  0  0  0
   -0.6360  -54.0579  -17.2746 H   0  0  0  0  0  0  0  0  0  0  0  0
   -2.0566  -52.5545  -16.9252 C   0  0  0  0  0  0  0  0  0  0  0  0
   -3.3973  -52.9387  -16.8944 C   0  0  0  0  0  0  0  0  0  0  0  0
   -4.2472  -52.2555  -16.0741 C   0  0  0  0  0  0  0  0  0  0  0  0
   -3.8158  -51.2174  -15.2911 C   0  0  0  0  0  0  0  0  0  0  0  0
   -4.7033  -50.5793  -14.4986 F   0  0  0  0  0  0  0  0  0  0  0  0
   -2.4806  -50.8288  -15.3143 C   0  0  0  0  0  0  0  0  0  0  0  0
   -2.0099  -49.4925  -14.2924 Cl  0  0  0  0  0  0  0  0  0  0  0  0
   -1.6115  -51.5119  -16.1415 C   0  0  0  0  0  0  0  0  0  0  0  0
    2.2916  -49.3925  -19.3177 O   0  0  0  0  0  0  0  0  0  0  0  0
    3.2005  -47.6214  -18.0388 C   0  0  0  0  0  0  0  0  0  0  0  0
    2.2093  -48.7570  -18.0953 C   0  0  0  0  0  0  0  0  0  0  0  0
    3.9043  -48.6784  -23.7828 C   0  0  0  0  0  0  0  0  0  0  0  0
    5.3671  -49.0657  -23.8753 C   0  0  0  0  0  0  0  0  0  0  0  0
    5.7379  -48.7248  -25.2639 C   0  0  0  0  0  0  0  0  0  0  0  0
    7.0101  -48.6380  -25.8393 C   0  0  0  0  0  0  0  0  0  0  0  0
    7.1721  -48.2974  -27.1625 C   0  0  0  0  0  0  0  0  0  0  0  0
    6.0761  -48.0379  -27.9351 C   0  0  0  0  0  0  0  0  0  0  0  0
    4.8156  -48.1269  -27.3523 C   0  0  0  0  0  0  0  0  0  0  0  0
    4.6255  -48.4694  -26.0180 C   0  0  0  0  0  0  0  0  0  0  0  0
    3.3905  -48.6466  -25.1725 C   0  0  0  0  0  0  0  0  0  0  0  0
    6.1736  -47.7102  -29.3269 N   0  0  0  0  0  0  0  0  0  0  0  0
    5.6735  -48.5538  -30.3299 C   0  0  0  0  0  0  0  0  0  0  0  0
    5.0863  -49.6461  -29.9779 O   0  0  0  0  0  0  0  0  0  0  0  0
    6.6321  -46.8159  -29.5625 H   0  0  0  0  0  0  0  0  0  0  0  0
    5.8007  -48.2312  -31.7307 C   0  0  0  0  0  0  0  0  0  0  0  0
    6.9329  -47.9305  -32.2925 C   0  0  0  0  0  0  0  0  0  0  0  0
    7.0658  -47.5982  -33.7387 C   0  0  0  0  0  0  0  0  0  0  0  0
    8.3135  -47.1057  -34.1523 N   0  0  0  0  0  0  0  0  0  0  0  0
    8.4485  -45.7625  -34.5392 C   0  0  0  0  0  0  0  0  0  0  0  0
    9.8469  -45.2120  -34.4048 C   0  0  0  0  0  0  0  0  0  0  0  0
   10.8525  -46.0968  -34.8707 N   0  0  0  0  0  0  0  0  0  0  0  0
   10.7043  -47.4746  -34.5822 C   0  0  0  0  0  0  0  0  0  0  0  0
    9.4766  -47.8469  -33.8285 C   0  0  0  0  0  0  0  0  0  0  0  0
   11.7890  -45.7175  -34.9720 H   0  0  0  0  0  0  0  0  0  0  0  0
 26 27  1  0  0  0
 27 25  1  0  0  0
 25  5  1  0  0  0
  5  6  2  0  0  0
  6  7  1  0  0  0
  7  8  2  0  0  0
  8 15  1  0  0  0
 15 17  1  0  0  0
 17 18  2  0  0  0
 18 19  1  0  0  0
 19 20  2  0  0  0
 20 21  1  0  0  0
 20 22  1  0  0  0
 22 23  1  0  0  0
 22 24  2  0  0  0
  8  9  1  0  0  0
  9 10  1  0  0  0
 10 11  2  0  0  0
 11 12  1  0  0  0
 12 13  2  0  0  0
 13  1  1  0  0  0
  1  2  2  0  0  0
  1  3  1  0  0  0
  3 28  1  0  0  0
 28 29  1  0  0  0
 29 30  1  0  0  0
 30 31  2  0  0  0
 31 32  1  0  0  0
 32 33  2  0  0  0
 33 37  1  0  0  0
 37 38  1  0  0  0
 38 39  2  0  0  0
 38 41  1  0  0  0
 41 42  2  0  0  0
 42 43  1  0  0  0
 43 44  1  0  0  0
 44 45  1  0  0  0
 45 46  1  0  0  0
 46 47  1  0  0  0
 47 48  1  0  0  0
 48 49  1  0  0  0
 33 34  1  0  0  0
 34 35  2  0  0  0
 35 36  1  0  0  0
 13  5  1  0  0  0
 36 28  1  0  0  0
 11  7  1  0  0  0
 35 30  1  0  0  0
 24 17  1  0  0  0
 49 44  1  0  0  0
 15 16  1  0  0  0
  9 14  1  0  0  0
  3  4  1  0  0  0
 37 40  1  0  0  0
 47 50  1  0  0  0
M  END
> <minimizedAffinity>
-7.71912

> <CNNscore>
0.3029656410

> <CNNaffinity>
6.4115653038

> <CNN_VS>
1.9424840212

> <CNNaffinity_variance>
0.4394156337

$$$$
[H]/C(C(=O)N([H])c1c([H])c([H])c2c(c1[H])C([H])([H])[C@@]([H])(N([H])C(=O)c1c(OC([H])([H])C([H])([H])[H])c([H])c3c(N([H])c4c([H])c([H])c(F)c(Cl)c4[H])n([H])nc3c1[H])C2([H])[H])=C(/[H])C([H])([H])N1C([H])([H])C([H])([H])N([H])C([H])([H])C1([H])[H]


 50 55  0  0  0  0  0  0  0  0999 V2000
    2.6728  -50.1667  -21.8621 C   0  0  0  0  0  0  0  0  0  0  0  0
    3.8579  -50.7319  -21.9951 O   0  0  0  0  0  0  0  0  0  0  0  0
    2.4233  -49.0203  -22.6109 N   0  0  0  0  0  0  0  0  0  0  0  0
    1.5629  -48.4819  -22.5888 H   0  0  0  0  0  0  0  0  0  0  0  0
    1.7802  -50.5774  -19.5617 C   0  0  0  0  0  0  0  0  0  0  0  0
    0.8918  -51.2438  -18.7078 C   0  0  0  0  0  0  0  0  0  0  0  0
    0.0326  -52.1895  -19.1681 C   0  0  0  0  0  0  0  0  0  0  0  0
   -0.9395  -52.9803  -18.5459 C   0  0  0  0  0  0  0  0  0  0  0  0
   -1.4570  -53.7121  -19.5310 N   0  0  0  0  0  0  0  0  0  0  0  0
   -0.8788  -53.4315  -20.7095 N   0  0  0  0  0  0  0  0  0  0  0  0
    0.0640  -52.4737  -20.5070 C   0  0  0  0  0  0  0  0  0  0  0  0
    0.9213  -51.8406  -21.3743 C   0  0  0  0  0  0  0  0  0  0  0  0
    1.8139  -50.8654  -20.9353 C   0  0  0  0  0  0  0  0  0  0  0  0
   -2.2142  -54.4364  -19.3908 H   0  0  0  0  0  0  0  0  0  0  0  0
   -1.2328  -52.9873  -17.1487 N   0  0  0  0  0  0  0  0  0  0  0  0
   -0.6840  -53.6381  -16.5221 H   0  0  0  0  0  0  0  0  0  0  0  0
   -2.2046  -52.1929  -16.5252 C   0  0  0  0  0  0  0  0  0  0  0  0
   -3.5318  -52.6205  -16.5679 C   0  0  0  0  0  0  0  0  0  0  0  0
   -4.4749  -51.8666  -15.9321 C   0  0  0  0  0  0  0  0  0  0  0  0
   -4.1485  -50.7174  -15.2614 C   0  0  0  0  0  0  0  0  0  0  0  0
   -5.1252  -50.0135  -14.6504 F   0  0  0  0  0  0  0  0  0  0  0  0
   -2.8276  -50.2848  -15.2123 C   0  0  0  0  0  0  0  0  0  0  0  0
   -2.4930  -48.8070  -14.3432 Cl  0  0  0  0  0  0  0  0  0  0  0  0
   -1.8648  -51.0388  -15.8531 C   0  0  0  0  0  0  0  0  0  0  0  0
    2.6199  -49.6470  -19.0562 O   0  0  0  0  0  0  0  0  0  0  0  0
    3.5177  -47.4910  -19.4359 C   0  0  0  0  0  0  0  0  0  0  0  0
    2.4441  -48.3097  -18.7633 C   0  0  0  0  0  0  0  0  0  0  0  0
    3.4530  -48.5033  -23.5222 C   0  0  0  0  0  0  0  0  0  0  0  0
    3.1178  -49.1113  -24.8699 C   0  0  0  0  0  0  0  0  0  0  0  0
    3.3240  -48.0009  -25.8219 C   0  0  0  0  0  0  0  0  0  0  0  0
    3.4008  -48.0412  -27.2183 C   0  0  0  0  0  0  0  0  0  0  0  0
    3.6052  -46.8968  -27.9541 C   0  0  0  0  0  0  0  0  0  0  0  0
    3.7366  -45.6955  -27.3176 C   0  0  0  0  0  0  0  0  0  0  0  0
    3.6588  -45.6672  -25.9285 C   0  0  0  0  0  0  0  0  0  0  0  0
    3.4526  -46.8093  -25.1624 C   0  0  0  0  0  0  0  0  0  0  0  0
    3.3161  -47.0359  -23.6786 C   0  0  0  0  0  0  0  0  0  0  0  0
    3.9183  -44.4630  -28.0260 N   0  0  0  0  0  0  0  0  0  0  0  0
    5.1579  -44.0860  -28.5636 C   0  0  0  0  0  0  0  0  0  0  0  0
    6.1553  -44.8923  -28.4329 O   0  0  0  0  0  0  0  0  0  0  0  0
    3.0881  -43.8578  -28.1257 H   0  0  0  0  0  0  0  0  0  0  0  0
    5.3406  -42.8303  -29.2506 C   0  0  0  0  0  0  0  0  0  0  0  0
    6.0922  -42.6961  -30.3018 C   0  0  0  0  0  0  0  0  0  0  0  0
    6.2810  -41.4005  -31.0126 C   0  0  0  0  0  0  0  0  0  0  0  0
    7.5954  -41.0823  -31.3889 N   0  0  0  0  0  0  0  0  0  0  0  0
    8.0658  -41.4254  -32.6669 C   0  0  0  0  0  0  0  0  0  0  0  0
    9.2101  -40.5744  -33.1598 C   0  0  0  0  0  0  0  0  0  0  0  0
   10.2030  -40.3335  -32.1762 N   0  0  0  0  0  0  0  0  0  0  0  0
    9.7720  -40.0765  -30.8527 C   0  0  0  0  0  0  0  0  0  0  0  0
    8.3004  -40.1113  -30.6360 C   0  0  0  0  0  0  0  0  0  0  0  0
   11.0757  -39.9225  -32.4936 H   0  0  0  0  0  0  0  0  0  0  0  0
 26 27  1  0  0  0
 27 25  1  0  0  0
 25  5  1  0  0  0
  5  6  2  0  0  0
  6  7  1  0  0  0
  7  8  2  0  0  0
  8 15  1  0  0  0
 15 17  1  0  0  0
 17 18  2  0  0  0
 18 19  1  0  0  0
 19 20  2  0  0  0
 20 21  1  0  0  0
 20 22  1  0  0  0
 22 23  1  0  0  0
 22 24  2  0  0  0
  8  9  1  0  0  0
  9 10  1  0  0  0
 10 11  2  0  0  0
 11 12  1  0  0  0
 12 13  2  0  0  0
 13  1  1  0  0  0
  1  2  2  0  0  0
  1  3  1  0  0  0
  3 28  1  0  0  0
 28 29  1  0  0  0
 29 30  1  0  0  0
 30 31  2  0  0  0
 31 32  1  0  0  0
 32 33  2  0  0  0
 33 37  1  0  0  0
 37 38  1  0  0  0
 38 39  2  0  0  0
 38 41  1  0  0  0
 41 42  2  0  0  0
 42 43  1  0  0  0
 43 44  1  0  0  0
 44 45  1  0  0  0
 45 46  1  0  0  0
 46 47  1  0  0  0
 47 48  1  0  0  0
 48 49  1  0  0  0
 33 34  1  0  0  0
 34 35  2  0  0  0
 35 36  1  0  0  0
 13  5  1  0  0  0
 36 28  1  0  0  0
 11  7  1  0  0  0
 35 30  1  0  0  0
 24 17  1  0  0  0
 49 44  1  0  0  0
 15 16  1  0  0  0
  9 14  1  0  0  0
  3  4  1  0  0  0
 37 40  1  0  0  0
 47 50  1  0  0  0
M  END
> <minimizedAffinity>
-7.12531

> <CNNscore>
0.3021027148

> <CNNaffinity>
6.2979583740

> <CNN_VS>
1.9026303291

> <CNNaffinity_variance>
0.6332699060

$$$$
[H]/C(C(=O)N([H])c1c([H])c([H])c2c(c1[H])C([H])([H])[C@@]([H])(N([H])C(=O)c1c(OC([H])([H])C([H])([H])[H])c([H])c3c(N([H])c4c([H])c([H])c(F)c(Cl)c4[H])n([H])nc3c1[H])C2([H])[H])=C(/[H])C([H])([H])N1C([H])([H])C([H])([H])N([H])C([H])([H])C1([H])[H]


 50 55  0  0  0  0  0  0  0  0999 V2000
    2.3280  -49.4597  -21.9832 C   0  0  0  0  0  0  0  0  0  0  0  0
    1.7892  -48.2591  -22.0835 O   0  0  0  0  0  0  0  0  0  0  0  0
    3.5138  -49.6885  -22.6751 N   0  0  0  0  0  0  0  0  0  0  0  0
    4.0197  -50.5684  -22.6955 H   0  0  0  0  0  0  0  0  0  0  0  0
    1.6444  -50.3262  -19.7384 C   0  0  0  0  0  0  0  0  0  0  0  0
    0.8479  -51.1742  -18.9581 C   0  0  0  0  0  0  0  0  0  0  0  0
   -0.0248  -52.0506  -19.5191 C   0  0  0  0  0  0  0  0  0  0  0  0
   -0.9216  -52.9808  -18.9823 C   0  0  0  0  0  0  0  0  0  0  0  0
   -1.5036  -53.5361  -20.0437 N   0  0  0  0  0  0  0  0  0  0  0  0
   -1.0347  -53.0186  -21.1901 N   0  0  0  0  0  0  0  0  0  0  0  0
   -0.1009  -52.0791  -20.8858 C   0  0  0  0  0  0  0  0  0  0  0  0
    0.6643  -51.2625  -21.6831 C   0  0  0  0  0  0  0  0  0  0  0  0
    1.5678  -50.3519  -21.1399 C   0  0  0  0  0  0  0  0  0  0  0  0
   -2.2289  -54.3029  -19.9833 H   0  0  0  0  0  0  0  0  0  0  0  0
   -1.0946  -53.2593  -17.5928 N   0  0  0  0  0  0  0  0  0  0  0  0
   -0.4515  -53.9631  -17.1363 H   0  0  0  0  0  0  0  0  0  0  0  0
   -2.0624  -52.6710  -16.7673 C   0  0  0  0  0  0  0  0  0  0  0  0
   -1.7683  -51.4397  -16.1814 C   0  0  0  0  0  0  0  0  0  0  0  0
   -2.7222  -50.8486  -15.4050 C   0  0  0  0  0  0  0  0  0  0  0  0
   -3.9444  -51.4307  -15.1949 C   0  0  0  0  0  0  0  0  0  0  0  0
   -4.8487  -50.7977  -14.4175 F   0  0  0  0  0  0  0  0  0  0  0  0
   -4.2466  -52.6573  -15.7767 C   0  0  0  0  0  0  0  0  0  0  0  0
   -5.8234  -53.3373  -15.4559 Cl  0  0  0  0  0  0  0  0  0  0  0  0
   -3.2888  -53.2655  -16.5632 C   0  0  0  0  0  0  0  0  0  0  0  0
    2.5019  -49.4740  -19.1345 O   0  0  0  0  0  0  0  0  0  0  0  0
    3.0596  -47.4119  -18.1170 C   0  0  0  0  0  0  0  0  0  0  0  0
    2.4180  -48.7670  -17.9521 C   0  0  0  0  0  0  0  0  0  0  0  0
    4.1262  -48.6048  -23.4553 C   0  0  0  0  0  0  0  0  0  0  0  0
    5.3063  -48.1465  -22.6213 C   0  0  0  0  0  0  0  0  0  0  0  0
    6.3831  -47.9416  -23.6115 C   0  0  0  0  0  0  0  0  0  0  0  0
    7.6134  -47.2948  -23.4529 C   0  0  0  0  0  0  0  0  0  0  0  0
    8.5034  -47.1904  -24.4970 C   0  0  0  0  0  0  0  0  0  0  0  0
    8.1877  -47.7252  -25.7134 C   0  0  0  0  0  0  0  0  0  0  0  0
    6.9612  -48.3660  -25.8599 C   0  0  0  0  0  0  0  0  0  0  0  0
    6.0450  -48.4850  -24.8205 C   0  0  0  0  0  0  0  0  0  0  0  0
    4.6874  -49.1321  -24.7215 C   0  0  0  0  0  0  0  0  0  0  0  0
    9.0828  -47.6798  -26.8318 N   0  0  0  0  0  0  0  0  0  0  0  0
   10.0404  -48.6785  -27.0634 C   0  0  0  0  0  0  0  0  0  0  0  0
   10.0934  -49.6791  -26.2522 O   0  0  0  0  0  0  0  0  0  0  0  0
    8.9912  -46.8719  -27.4676 H   0  0  0  0  0  0  0  0  0  0  0  0
   10.9577  -48.6117  -28.1753 C   0  0  0  0  0  0  0  0  0  0  0  0
   10.5868  -48.3347  -29.3892 C   0  0  0  0  0  0  0  0  0  0  0  0
   11.5329  -48.2645  -30.5379 C   0  0  0  0  0  0  0  0  0  0  0  0
   11.2927  -47.2535  -31.4816 N   0  0  0  0  0  0  0  0  0  0  0  0
   11.0975  -45.9280  -31.0610 C   0  0  0  0  0  0  0  0  0  0  0  0
   11.4189  -44.8881  -32.1059 C   0  0  0  0  0  0  0  0  0  0  0  0
   10.9266  -45.2092  -33.3966 N   0  0  0  0  0  0  0  0  0  0  0  0
   11.0190  -46.5562  -33.8216 C   0  0  0  0  0  0  0  0  0  0  0  0
   11.6125  -47.5028  -32.8390 C   0  0  0  0  0  0  0  0  0  0  0  0
   10.9542  -44.4738  -34.0963 H   0  0  0  0  0  0  0  0  0  0  0  0
 26 27  1  0  0  0
 27 25  1  0  0  0
 25  5  1  0  0  0
  5  6  2  0  0  0
  6  7  1  0  0  0
  7  8  2  0  0  0
  8 15  1  0  0  0
 15 17  1  0  0  0
 17 18  2  0  0  0
 18 19  1  0  0  0
 19 20  2  0  0  0
 20 21  1  0  0  0
 20 22  1  0  0  0
 22 23  1  0  0  0
 22 24  2  0  0  0
  8  9  1  0  0  0
  9 10  1  0  0  0
 10 11  2  0  0  0
 11 12  1  0  0  0
 12 13  2  0  0  0
 13  1  1  0  0  0
  1  2  2  0  0  0
  1  3  1  0  0  0
  3 28  1  0  0  0
 28 29  1  0  0  0
 29 30  1  0  0  0
 30 31  2  0  0  0
 31 32  1  0  0  0
 32 33  2  0  0  0
 33 37  1  0  0  0
 37 38  1  0  0  0
 38 39  2  0  0  0
 38 41  1  0  0  0
 41 42  2  0  0  0
 42 43  1  0  0  0
 43 44  1  0  0  0
 44 45  1  0  0  0
 45 46  1  0  0  0
 46 47  1  0  0  0
 47 48  1  0  0  0
 48 49  1  0  0  0
 33 34  1  0  0  0
 34 35  2  0  0  0
 35 36  1  0  0  0
 13  5  1  0  0  0
 36 28  1  0  0  0
 11  7  1  0  0  0
 35 30  1  0  0  0
 24 17  1  0  0  0
 49 44  1  0  0  0
 15 16  1  0  0  0
  9 14  1  0  0  0
  3  4  1  0  0  0
 37 40  1  0  0  0
 47 50  1  0  0  0
M  END
> <minimizedAffinity>
-6.95924

> <CNNscore>
0.2805404067

> <CNNaffinity>
6.2914972305

> <CNN_VS>
1.7650191784

> <CNNaffinity_variance>
0.3402274549

$$$$
[H]/C(C(=O)N([H])c1c([H])c([H])c2c(c1[H])C([H])([H])[C@@]([H])(N([H])C(=O)c1c(OC([H])([H])C([H])([H])[H])c([H])c3c(N([H])c4c([H])c([H])c(F)c(Cl)c4[H])n([H])nc3c1[H])C2([H])[H])=C(/[H])C([H])([H])N1C([H])([H])C([H])([H])N([H])C([H])([H])C1([H])[H]


 50 55  0  0  0  0  0  0  0  0999 V2000
    2.4397  -49.2033  -22.7303 C   0  0  0  0  0  0  0  0  0  0  0  0
    2.1311  -47.9515  -22.4482 O   0  0  0  0  0  0  0  0  0  0  0  0
    3.3744  -49.4201  -23.7385 N   0  0  0  0  0  0  0  0  0  0  0  0
    3.6857  -50.3303  -24.0630 H   0  0  0  0  0  0  0  0  0  0  0  0
    1.9293  -50.2676  -20.5248 C   0  0  0  0  0  0  0  0  0  0  0  0
    1.1814  -51.1722  -19.7602 C   0  0  0  0  0  0  0  0  0  0  0  0
    0.2419  -51.9762  -20.3217 C   0  0  0  0  0  0  0  0  0  0  0  0
   -0.6288  -52.9377  -19.7976 C   0  0  0  0  0  0  0  0  0  0  0  0
   -1.3135  -53.3796  -20.8510 N   0  0  0  0  0  0  0  0  0  0  0  0
   -0.9316  -52.7635  -21.9808 N   0  0  0  0  0  0  0  0  0  0  0  0
    0.0484  -51.8732  -21.6732 C   0  0  0  0  0  0  0  0  0  0  0  0
    0.7628  -50.9978  -22.4548 C   0  0  0  0  0  0  0  0  0  0  0  0
    1.7323  -50.1585  -21.9105 C   0  0  0  0  0  0  0  0  0  0  0  0
   -2.0501  -54.1361  -20.7990 H   0  0  0  0  0  0  0  0  0  0  0  0
   -0.6891  -53.3442  -18.4303 N   0  0  0  0  0  0  0  0  0  0  0  0
   -0.1747  -54.2216  -18.1425 H   0  0  0  0  0  0  0  0  0  0  0  0
   -1.3859  -52.6692  -17.4188 C   0  0  0  0  0  0  0  0  0  0  0  0
   -0.7476  -51.6105  -16.7726 C   0  0  0  0  0  0  0  0  0  0  0  0
   -1.4365  -50.9297  -15.8113 C   0  0  0  0  0  0  0  0  0  0  0  0
   -2.7232  -51.2593  -15.4755 C   0  0  0  0  0  0  0  0  0  0  0  0
   -3.3545  -50.5486  -14.5167 F   0  0  0  0  0  0  0  0  0  0  0  0
   -3.3678  -52.3122  -16.1160 C   0  0  0  0  0  0  0  0  0  0  0  0
   -5.0052  -52.6746  -15.6272 Cl  0  0  0  0  0  0  0  0  0  0  0  0
   -2.6802  -53.0091  -17.0894 C   0  0  0  0  0  0  0  0  0  0  0  0
    2.8567  -49.4915  -19.9215 O   0  0  0  0  0  0  0  0  0  0  0  0
    4.9389  -50.4269  -20.5447 C   0  0  0  0  0  0  0  0  0  0  0  0
    4.1274  -49.7665  -19.4582 C   0  0  0  0  0  0  0  0  0  0  0  0
    3.9912  -48.2757  -24.4225 C   0  0  0  0  0  0  0  0  0  0  0  0
    5.4034  -48.7282  -24.7377 C   0  0  0  0  0  0  0  0  0  0  0  0
    5.6392  -48.2289  -26.1077 C   0  0  0  0  0  0  0  0  0  0  0  0
    6.8418  -48.1381  -26.8168 C   0  0  0  0  0  0  0  0  0  0  0  0
    6.8780  -47.6360  -28.0972 C   0  0  0  0  0  0  0  0  0  0  0  0
    5.7234  -47.2164  -28.6942 C   0  0  0  0  0  0  0  0  0  0  0  0
    4.5331  -47.3110  -27.9795 C   0  0  0  0  0  0  0  0  0  0  0  0
    4.4701  -47.8149  -26.6849 C   0  0  0  0  0  0  0  0  0  0  0  0
    3.3283  -48.0328  -25.7255 C   0  0  0  0  0  0  0  0  0  0  0  0
    5.6870  -46.7145  -30.0360 N   0  0  0  0  0  0  0  0  0  0  0  0
    5.8748  -45.3559  -30.3309 C   0  0  0  0  0  0  0  0  0  0  0  0
    6.1119  -44.5431  -29.3588 O   0  0  0  0  0  0  0  0  0  0  0  0
    5.5157  -47.4035  -30.7852 H   0  0  0  0  0  0  0  0  0  0  0  0
    5.8083  -44.8529  -31.6817 C   0  0  0  0  0  0  0  0  0  0  0  0
    4.9942  -45.3238  -32.5780 C   0  0  0  0  0  0  0  0  0  0  0  0
    4.9237  -44.8048  -33.9727 C   0  0  0  0  0  0  0  0  0  0  0  0
    5.0437  -43.4147  -34.1267 N   0  0  0  0  0  0  0  0  0  0  0  0
    6.3072  -42.8329  -34.3193 C   0  0  0  0  0  0  0  0  0  0  0  0
    6.2788  -41.4981  -35.0223 C   0  0  0  0  0  0  0  0  0  0  0  0
    5.2604  -40.6304  -34.5520 N   0  0  0  0  0  0  0  0  0  0  0  0
    3.9970  -41.1955  -34.2556 C   0  0  0  0  0  0  0  0  0  0  0  0
    3.8863  -42.6660  -34.4536 C   0  0  0  0  0  0  0  0  0  0  0  0
    5.3027  -39.6627  -34.8569 H   0  0  0  0  0  0  0  0  0  0  0  0
 26 27  1  0  0  0
 27 25  1  0  0  0
 25  5  1  0  0  0
  5  6  2  0  0  0
  6  7  1  0  0  0
  7  8  2  0  0  0
  8 15  1  0  0  0
 15 17  1  0  0  0
 17 18  2  0  0  0
 18 19  1  0  0  0
 19 20  2  0  0  0
 20 21  1  0  0  0
 20 22  1  0  0  0
 22 23  1  0  0  0
 22 24  2  0  0  0
  8  9  1  0  0  0
  9 10  1  0  0  0
 10 11  2  0  0  0
 11 12  1  0  0  0
 12 13  2  0  0  0
 13  1  1  0  0  0
  1  2  2  0  0  0
  1  3  1  0  0  0
  3 28  1  0  0  0
 28 29  1  0  0  0
 29 30  1  0  0  0
 30 31  2  0  0  0
 31 32  1  0  0  0
 32 33  2  0  0  0
 33 37  1  0  0  0
 37 38  1  0  0  0
 38 39  2  0  0  0
 38 41  1  0  0  0
 41 42  2  0  0  0
 42 43  1  0  0  0
 43 44  1  0  0  0
 44 45  1  0  0  0
 45 46  1  0  0  0
 46 47  1  0  0  0
 47 48  1  0  0  0
 48 49  1  0  0  0
 33 34  1  0  0  0
 34 35  2  0  0  0
 35 36  1  0  0  0
 13  5  1  0  0  0
 36 28  1  0  0  0
 11  7  1  0  0  0
 35 30  1  0  0  0
 24 17  1  0  0  0
 49 44  1  0  0  0
 15 16  1  0  0  0
  9 14  1  0  0  0
  3  4  1  0  0  0
 37 40  1  0  0  0
 47 50  1  0  0  0
M  END
> <minimizedAffinity>
-7.22790

> <CNNscore>
0.2526932061

> <CNNaffinity>
6.4612784386

> <CNN_VS>
1.6327211857

> <CNNaffinity_variance>
0.9414632916

$$$$
[H]/C(C(=O)N([H])c1c([H])c([H])c2c(c1[H])C([H])([H])[C@@]([H])(N([H])C(=O)c1c(OC([H])([H])C([H])([H])[H])c([H])c3c(N([H])c4c([H])c([H])c(F)c(Cl)c4[H])n([H])nc3c1[H])C2([H])[H])=C(/[H])C([H])([H])N1C([H])([H])C([H])([H])N([H])C([H])([H])C1([H])[H]


 50 55  0  0  0  0  0  0  0  0999 V2000
    2.6705  -49.6061  -21.0128 C   0  0  0  0  0  0  0  0  0  0  0  0
    2.1387  -48.4783  -21.4454 O   0  0  0  0  0  0  0  0  0  0  0  0
    3.9434  -49.9308  -21.4727 N   0  0  0  0  0  0  0  0  0  0  0  0
    4.4562  -50.7731  -21.2315 H   0  0  0  0  0  0  0  0  0  0  0  0
    1.5914  -49.9178  -18.7777 C   0  0  0  0  0  0  0  0  0  0  0  0
    0.7052  -50.6154  -17.9468 C   0  0  0  0  0  0  0  0  0  0  0  0
    0.0252  -51.7067  -18.3840 C   0  0  0  0  0  0  0  0  0  0  0  0
   -0.9030  -52.5597  -17.7772 C   0  0  0  0  0  0  0  0  0  0  0  0
   -1.2155  -53.4427  -18.7240 N   0  0  0  0  0  0  0  0  0  0  0  0
   -0.5522  -53.1976  -19.8649 N   0  0  0  0  0  0  0  0  0  0  0  0
    0.2368  -52.1071  -19.6761 C   0  0  0  0  0  0  0  0  0  0  0  0
    1.0979  -51.4477  -20.5197 C   0  0  0  0  0  0  0  0  0  0  0  0
    1.8095  -50.3249  -20.1034 C   0  0  0  0  0  0  0  0  0  0  0  0
   -1.8877  -54.2461  -18.5808 H   0  0  0  0  0  0  0  0  0  0  0  0
   -1.3431  -52.4764  -16.4216 N   0  0  0  0  0  0  0  0  0  0  0  0
   -0.8780  -53.0956  -15.7021 H   0  0  0  0  0  0  0  0  0  0  0  0
   -2.3583  -51.6307  -15.9544 C   0  0  0  0  0  0  0  0  0  0  0  0
   -3.6788  -52.0696  -16.0527 C   0  0  0  0  0  0  0  0  0  0  0  0
   -4.6663  -51.2628  -15.5671 C   0  0  0  0  0  0  0  0  0  0  0  0
   -4.3903  -50.0503  -14.9920 C   0  0  0  0  0  0  0  0  0  0  0  0
   -5.4095  -49.2958  -14.5285 F   0  0  0  0  0  0  0  0  0  0  0  0
   -3.0765  -49.6058  -14.8883 C   0  0  0  0  0  0  0  0  0  0  0  0
   -2.8070  -48.0465  -14.1485 Cl  0  0  0  0  0  0  0  0  0  0  0  0
   -2.0690  -50.4131  -15.3774 C   0  0  0  0  0  0  0  0  0  0  0  0
    2.2492  -48.8401  -18.2958 O   0  0  0  0  0  0  0  0  0  0  0  0
    3.3890  -49.4091  -16.3019 C   0  0  0  0  0  0  0  0  0  0  0  0
    3.4571  -48.7158  -17.6398 C   0  0  0  0  0  0  0  0  0  0  0  0
    4.6472  -49.0175  -22.3829 C   0  0  0  0  0  0  0  0  0  0  0  0
    6.1051  -49.1157  -21.9788 C   0  0  0  0  0  0  0  0  0  0  0  0
    6.8295  -49.1457  -23.2658 C   0  0  0  0  0  0  0  0  0  0  0  0
    8.1978  -48.9865  -23.5098 C   0  0  0  0  0  0  0  0  0  0  0  0
    8.7046  -49.0383  -24.7879 C   0  0  0  0  0  0  0  0  0  0  0  0
    7.8634  -49.2487  -25.8431 C   0  0  0  0  0  0  0  0  0  0  0  0
    6.5042  -49.4054  -25.5888 C   0  0  0  0  0  0  0  0  0  0  0  0
    5.9676  -49.3575  -24.3067 C   0  0  0  0  0  0  0  0  0  0  0  0
    4.5648  -49.5117  -23.7777 C   0  0  0  0  0  0  0  0  0  0  0  0
    8.3305  -49.3461  -27.1945 N   0  0  0  0  0  0  0  0  0  0  0  0
    8.1901  -48.2937  -28.1112 C   0  0  0  0  0  0  0  0  0  0  0  0
    7.6440  -47.1973  -27.7093 O   0  0  0  0  0  0  0  0  0  0  0  0
    8.7807  -50.2340  -27.4674 H   0  0  0  0  0  0  0  0  0  0  0  0
    8.6368  -48.4092  -29.4785 C   0  0  0  0  0  0  0  0  0  0  0  0
    7.9155  -48.0473  -30.4966 C   0  0  0  0  0  0  0  0  0  0  0  0
    8.3758  -48.1651  -31.9086 C   0  0  0  0  0  0  0  0  0  0  0  0
    7.3720  -48.2188  -32.8884 N   0  0  0  0  0  0  0  0  0  0  0  0
    6.0505  -48.5285  -32.5279 C   0  0  0  0  0  0  0  0  0  0  0  0
    5.0052  -48.0128  -33.4861 C   0  0  0  0  0  0  0  0  0  0  0  0
    5.3395  -48.2093  -34.8503 N   0  0  0  0  0  0  0  0  0  0  0  0
    6.6847  -47.9987  -35.2370 C   0  0  0  0  0  0  0  0  0  0  0  0
    7.6161  -47.6097  -34.1439 C   0  0  0  0  0  0  0  0  0  0  0  0
    4.6047  -48.0480  -35.5324 H   0  0  0  0  0  0  0  0  0  0  0  0
 26 27  1  0  0  0
 27 25  1  0  0  0
 25  5  1  0  0  0
  5  6  2  0  0  0
  6  7  1  0  0  0
  7  8  2  0  0  0
  8 15  1  0  0  0
 15 17  1  0  0  0
 17 18  2  0  0  0
 18 19  1  0  0  0
 19 20  2  0  0  0
 20 21  1  0  0  0
 20 22  1  0  0  0
 22 23  1  0  0  0
 22 24  2  0  0  0
  8  9  1  0  0  0
  9 10  1  0  0  0
 10 11  2  0  0  0
 11 12  1  0  0  0
 12 13  2  0  0  0
 13  1  1  0  0  0
  1  2  2  0  0  0
  1  3  1  0  0  0
  3 28  1  0  0  0
 28 29  1  0  0  0
 29 30  1  0  0  0
 30 31  2  0  0  0
 31 32  1  0  0  0
 32 33  2  0  0  0
 33 37  1  0  0  0
 37 38  1  0  0  0
 38 39  2  0  0  0
 38 41  1  0  0  0
 41 42  2  0  0  0
 42 43  1  0  0  0
 43 44  1  0  0  0
 44 45  1  0  0  0
 45 46  1  0  0  0
 46 47  1  0  0  0
 47 48  1  0  0  0
 48 49  1  0  0  0
 33 34  1  0  0  0
 34 35  2  0  0  0
 35 36  1  0  0  0
 13  5  1  0  0  0
 36 28  1  0  0  0
 11  7  1  0  0  0
 35 30  1  0  0  0
 24 17  1  0  0  0
 49 44  1  0  0  0
 15 16  1  0  0  0
  9 14  1  0  0  0
  3  4  1  0  0  0
 37 40  1  0  0  0
 47 50  1  0  0  0
M  END
> <minimizedAffinity>
-7.91297

> <CNNscore>
0.2218502015

> <CNNaffinity>
6.3207635880

> <CNN_VS>
1.4022626877

> <CNNaffinity_variance>
0.2385284901

$$$$
[H]/C(C(=O)N([H])c1c([H])c([H])c2c(c1[H])C([H])([H])[C@@]([H])(N([H])C(=O)c1c(OC([H])([H])C([H])([H])[H])c([H])c3c(N([H])c4c([H])c([H])c(F)c(Cl)c4[H])n([H])nc3c1[H])C2([H])[H])=C(/[H])C([H])([H])N1C([H])([H])C([H])([H])N([H])C([H])([H])C1([H])[H]


 50 55  0  0  0  0  0  0  0  0999 V2000
    2.0878  -49.2759  -21.8537 C   0  0  0  0  0  0  0  0  0  0  0  0
    1.5946  -48.0518  -21.8560 O   0  0  0  0  0  0  0  0  0  0  0  0
    3.1711  -49.5307  -22.6896 N   0  0  0  0  0  0  0  0  0  0  0  0
    3.6315  -50.4293  -22.7945 H   0  0  0  0  0  0  0  0  0  0  0  0
    1.2784  -49.9090  -19.5731 C   0  0  0  0  0  0  0  0  0  0  0  0
    0.5509  -50.7700  -18.7413 C   0  0  0  0  0  0  0  0  0  0  0  0
   -0.0670  -51.8781  -19.2258 C   0  0  0  0  0  0  0  0  0  0  0  0
   -0.8449  -52.8758  -18.6283 C   0  0  0  0  0  0  0  0  0  0  0  0
   -1.1706  -53.6914  -19.6296 N   0  0  0  0  0  0  0  0  0  0  0  0
   -0.6540  -53.2715  -20.7952 N   0  0  0  0  0  0  0  0  0  0  0  0
    0.0463  -52.1292  -20.5669 C   0  0  0  0  0  0  0  0  0  0  0  0
    0.7512  -51.3075  -21.4130 C   0  0  0  0  0  0  0  0  0  0  0  0
    1.3953  -50.1628  -20.9488 C   0  0  0  0  0  0  0  0  0  0  0  0
   -1.7473  -54.5693  -19.5098 H   0  0  0  0  0  0  0  0  0  0  0  0
   -1.1486  -52.9682  -17.2364 N   0  0  0  0  0  0  0  0  0  0  0  0
   -0.5929  -53.6441  -16.6434 H   0  0  0  0  0  0  0  0  0  0  0  0
   -2.1393  -52.2282  -16.5768 C   0  0  0  0  0  0  0  0  0  0  0  0
   -3.4555  -52.6860  -16.6401 C   0  0  0  0  0  0  0  0  0  0  0  0
   -4.4166  -51.9863  -15.9702 C   0  0  0  0  0  0  0  0  0  0  0  0
   -4.1182  -50.8620  -15.2463 C   0  0  0  0  0  0  0  0  0  0  0  0
   -5.1116  -50.2118  -14.6034 F   0  0  0  0  0  0  0  0  0  0  0  0
   -2.8084  -50.3996  -15.1763 C   0  0  0  0  0  0  0  0  0  0  0  0
   -2.5099  -48.9562  -14.2388 Cl  0  0  0  0  0  0  0  0  0  0  0  0
   -1.8277  -51.0987  -15.8513 C   0  0  0  0  0  0  0  0  0  0  0  0
    1.8801  -48.8209  -19.0438 O   0  0  0  0  0  0  0  0  0  0  0  0
    4.0391  -49.6551  -18.5523 C   0  0  0  0  0  0  0  0  0  0  0  0
    2.9445  -48.6881  -18.1753 C   0  0  0  0  0  0  0  0  0  0  0  0
    3.7330  -48.4486  -23.5090 C   0  0  0  0  0  0  0  0  0  0  0  0
    5.1919  -48.8185  -23.6909 C   0  0  0  0  0  0  0  0  0  0  0  0
    5.4641  -48.5046  -25.1084 C   0  0  0  0  0  0  0  0  0  0  0  0
    6.6937  -48.4141  -25.7697 C   0  0  0  0  0  0  0  0  0  0  0  0
    6.7618  -48.1018  -27.1079 C   0  0  0  0  0  0  0  0  0  0  0  0
    5.6131  -47.8745  -27.8108 C   0  0  0  0  0  0  0  0  0  0  0  0
    4.3957  -47.9669  -27.1428 C   0  0  0  0  0  0  0  0  0  0  0  0
    4.3002  -48.2812  -25.7916 C   0  0  0  0  0  0  0  0  0  0  0  0
    3.1271  -48.4554  -24.8614 C   0  0  0  0  0  0  0  0  0  0  0  0
    5.6125  -47.5774  -29.2128 N   0  0  0  0  0  0  0  0  0  0  0  0
    5.2578  -48.5311  -30.1784 C   0  0  0  0  0  0  0  0  0  0  0  0
    4.8978  -49.7035  -29.7812 O   0  0  0  0  0  0  0  0  0  0  0  0
    5.8867  -46.6202  -29.4849 H   0  0  0  0  0  0  0  0  0  0  0  0
    5.2872  -48.2338  -31.5902 C   0  0  0  0  0  0  0  0  0  0  0  0
    6.0787  -47.3474  -32.1151 C   0  0  0  0  0  0  0  0  0  0  0  0
    6.1109  -47.0400  -33.5726 C   0  0  0  0  0  0  0  0  0  0  0  0
    5.1096  -46.1798  -34.0498 N   0  0  0  0  0  0  0  0  0  0  0  0
    3.9343  -46.7072  -34.6089 C   0  0  0  0  0  0  0  0  0  0  0  0
    2.7452  -45.7803  -34.5508 C   0  0  0  0  0  0  0  0  0  0  0  0
    3.0523  -44.4404  -34.8996 N   0  0  0  0  0  0  0  0  0  0  0  0
    4.2751  -43.9010  -34.4335 C   0  0  0  0  0  0  0  0  0  0  0  0
    5.1245  -44.8253  -33.6349 C   0  0  0  0  0  0  0  0  0  0  0  0
    2.2686  -43.8128  -35.0518 H   0  0  0  0  0  0  0  0  0  0  0  0
 26 27  1  0  0  0
 27 25  1  0  0  0
 25  5  1  0  0  0
  5  6  2  0  0  0
  6  7  1  0  0  0
  7  8  2  0  0  0
  8 15  1  0  0  0
 15 17  1  0  0  0
 17 18  2  0  0  0
 18 19  1  0  0  0
 19 20  2  0  0  0
 20 21  1  0  0  0
 20 22  1  0  0  0
 22 23  1  0  0  0
 22 24  2  0  0  0
  8  9  1  0  0  0
  9 10  1  0  0  0
 10 11  2  0  0  0
 11 12  1  0  0  0
 12 13  2  0  0  0
 13  1  1  0  0  0
  1  2  2  0  0  0
  1  3  1  0  0  0
  3 28  1  0  0  0
 28 29  1  0  0  0
 29 30  1  0  0  0
 30 31  2  0  0  0
 31 32  1  0  0  0
 32 33  2  0  0  0
 33 37  1  0  0  0
 37 38  1  0  0  0
 38 39  2  0  0  0
 38 41  1  0  0  0
 41 42  2  0  0  0
 42 43  1  0  0  0
 43 44  1  0  0  0
 44 45  1  0  0  0
 45 46  1  0  0  0
 46 47  1  0  0  0
 47 48  1  0  0  0
 48 49  1  0  0  0
 33 34  1  0  0  0
 34 35  2  0  0  0
 35 36  1  0  0  0
 13  5  1  0  0  0
 36 28  1  0  0  0
 11  7  1  0  0  0
 35 30  1  0  0  0
 24 17  1  0  0  0
 49 44  1  0  0  0
 15 16  1  0  0  0
  9 14  1  0  0  0
  3  4  1  0  0  0
 37 40  1  0  0  0
 47 50  1  0  0  0
M  END
> <minimizedAffinity>
-8.61914

> <CNNscore>
0.2124988884

> <CNNaffinity>
6.3456869125

> <CNN_VS>
1.3484513760

> <CNNaffinity_variance>
0.3084465265

$$$$
[H]/C(C(=O)N([H])c1c([H])c([H])c2c(c1[H])C([H])([H])[C@@]([H])(N([H])C(=O)c1c(OC([H])([H])C([H])([H])[H])c([H])c3c(N([H])c4c([H])c([H])c(F)c(Cl)c4[H])n([H])nc3c1[H])C2([H])[H])=C(/[H])C([H])([H])N1C([H])([H])C([H])([H])N([H])C([H])([H])C1([H])[H]


 50 55  0  0  0  0  0  0  0  0999 V2000
    2.5957  -50.1481  -21.4773 C   0  0  0  0  0  0  0  0  0  0  0  0
    3.8050  -50.6758  -21.5071 O   0  0  0  0  0  0  0  0  0  0  0  0
    2.3392  -49.0873  -22.3411 N   0  0  0  0  0  0  0  0  0  0  0  0
    1.4601  -48.5838  -22.4056 H   0  0  0  0  0  0  0  0  0  0  0  0
    1.6422  -50.4002  -19.1785 C   0  0  0  0  0  0  0  0  0  0  0  0
    0.7403  -51.0169  -18.3017 C   0  0  0  0  0  0  0  0  0  0  0  0
   -0.0885  -52.0112  -18.7125 C   0  0  0  0  0  0  0  0  0  0  0  0
   -1.0651  -52.7711  -18.0596 C   0  0  0  0  0  0  0  0  0  0  0  0
   -1.5405  -53.5854  -19.0001 N   0  0  0  0  0  0  0  0  0  0  0  0
   -0.9324  -53.3840  -20.1797 N   0  0  0  0  0  0  0  0  0  0  0  0
   -0.0124  -52.3956  -20.0244 C   0  0  0  0  0  0  0  0  0  0  0  0
    0.8593  -51.8137  -20.9128 C   0  0  0  0  0  0  0  0  0  0  0  0
    1.7217  -50.7909  -20.5245 C   0  0  0  0  0  0  0  0  0  0  0  0
   -2.2891  -54.3115  -18.8266 H   0  0  0  0  0  0  0  0  0  0  0  0
   -1.3997  -52.6777  -16.6748 N   0  0  0  0  0  0  0  0  0  0  0  0
   -0.9004  -53.3117  -15.9921 H   0  0  0  0  0  0  0  0  0  0  0  0
   -2.3518  -51.8036  -16.1329 C   0  0  0  0  0  0  0  0  0  0  0  0
   -3.6865  -52.2091  -16.1196 C   0  0  0  0  0  0  0  0  0  0  0  0
   -4.6105  -51.3745  -15.5613 C   0  0  0  0  0  0  0  0  0  0  0  0
   -4.2581  -50.1662  -15.0202 C   0  0  0  0  0  0  0  0  0  0  0  0
   -5.2167  -49.3832  -14.4810 F   0  0  0  0  0  0  0  0  0  0  0  0
   -2.9295  -49.7549  -15.0276 C   0  0  0  0  0  0  0  0  0  0  0  0
   -2.5614  -48.1987  -14.3245 Cl  0  0  0  0  0  0  0  0  0  0  0  0
   -1.9859  -50.5905  -15.5910 C   0  0  0  0  0  0  0  0  0  0  0  0
    2.4505  -49.4181  -18.7219 O   0  0  0  0  0  0  0  0  0  0  0  0
    3.4212  -49.0004  -16.6049 C   0  0  0  0  0  0  0  0  0  0  0  0
    3.6419  -49.4548  -18.0261 C   0  0  0  0  0  0  0  0  0  0  0  0
    3.3896  -48.6171  -23.2541 C   0  0  0  0  0  0  0  0  0  0  0  0
    3.2822  -49.5213  -24.4662 C   0  0  0  0  0  0  0  0  0  0  0  0
    3.4508  -48.6029  -25.6108 C   0  0  0  0  0  0  0  0  0  0  0  0
    3.6840  -48.9068  -26.9563 C   0  0  0  0  0  0  0  0  0  0  0  0
    3.8230  -47.9130  -27.8976 C   0  0  0  0  0  0  0  0  0  0  0  0
    3.7330  -46.6035  -27.5199 C   0  0  0  0  0  0  0  0  0  0  0  0
    3.5011  -46.3129  -26.1789 C   0  0  0  0  0  0  0  0  0  0  0  0
    3.3567  -47.2988  -25.2088 C   0  0  0  0  0  0  0  0  0  0  0  0
    3.0884  -47.2451  -23.7267 C   0  0  0  0  0  0  0  0  0  0  0  0
    3.8356  -45.5222  -28.4548 N   0  0  0  0  0  0  0  0  0  0  0  0
    5.0669  -44.9423  -28.7943 C   0  0  0  0  0  0  0  0  0  0  0  0
    6.1391  -45.4206  -28.2617 O   0  0  0  0  0  0  0  0  0  0  0  0
    2.9544  -45.1848  -28.8733 H   0  0  0  0  0  0  0  0  0  0  0  0
    5.1600  -43.8347  -29.7146 C   0  0  0  0  0  0  0  0  0  0  0  0
    4.5577  -43.8122  -30.8655 C   0  0  0  0  0  0  0  0  0  0  0  0
    4.6521  -42.6690  -31.8161 C   0  0  0  0  0  0  0  0  0  0  0  0
    4.3960  -42.9585  -33.1656 N   0  0  0  0  0  0  0  0  0  0  0  0
    4.5059  -41.9498  -34.1364 C   0  0  0  0  0  0  0  0  0  0  0  0
    4.7771  -42.4543  -35.5323 C   0  0  0  0  0  0  0  0  0  0  0  0
    3.9924  -43.5796  -35.8917 N   0  0  0  0  0  0  0  0  0  0  0  0
    3.7788  -44.5758  -34.9092 C   0  0  0  0  0  0  0  0  0  0  0  0
    4.3945  -44.3131  -33.5804 C   0  0  0  0  0  0  0  0  0  0  0  0
    3.9990  -43.8525  -36.8698 H   0  0  0  0  0  0  0  0  0  0  0  0
 26 27  1  0  0  0
 27 25  1  0  0  0
 25  5  1  0  0  0
  5  6  2  0  0  0
  6  7  1  0  0  0
  7  8  2  0  0  0
  8 15  1  0  0  0
 15 17  1  0  0  0
 17 18  2  0  0  0
 18 19  1  0  0  0
 19 20  2  0  0  0
 20 21  1  0  0  0
 20 22  1  0  0  0
 22 23  1  0  0  0
 22 24  2  0  0  0
  8  9  1  0  0  0
  9 10  1  0  0  0
 10 11  2  0  0  0
 11 12  1  0  0  0
 12 13  2  0  0  0
 13  1  1  0  0  0
  1  2  2  0  0  0
  1  3  1  0  0  0
  3 28  1  0  0  0
 28 29  1  0  0  0
 29 30  1  0  0  0
 30 31  2  0  0  0
 31 32  1  0  0  0
 32 33  2  0  0  0
 33 37  1  0  0  0
 37 38  1  0  0  0
 38 39  2  0  0  0
 38 41  1  0  0  0
 41 42  2  0  0  0
 42 43  1  0  0  0
 43 44  1  0  0  0
 44 45  1  0  0  0
 45 46  1  0  0  0
 46 47  1  0  0  0
 47 48  1  0  0  0
 48 49  1  0  0  0
 33 34  1  0  0  0
 34 35  2  0  0  0
 35 36  1  0  0  0
 13  5  1  0  0  0
 36 28  1  0  0  0
 11  7  1  0  0  0
 35 30  1  0  0  0
 24 17  1  0  0  0
 49 44  1  0  0  0
 15 16  1  0  0  0
  9 14  1  0  0  0
  3  4  1  0  0  0
 37 40  1  0  0  0
 47 50  1  0  0  0
M  END
> <minimizedAffinity>
-8.18976

> <CNNscore>
0.2039649338

> <CNNaffinity>
6.3157110214

> <CNN_VS>
1.2881835699

> <CNNaffinity_variance>
0.6573253870

$$$$
[H]/C(C(=O)N([H])c1c([H])c([H])c2c(c1[H])C([H])([H])[C@@]([H])(N([H])C(=O)c1c(OC([H])([H])C([H])([H])[H])c([H])c3c(N([H])c4c([H])c([H])c(F)c(Cl)c4[H])n([H])nc3c1[H])C2([H])[H])=C(/[H])C([H])([H])N1C([H])([H])C([H])([H])N([H])C([H])([H])C1([H])[H]


 50 55  0  0  0  0  0  0  0  0999 V2000
    5.8476  -47.9871  -25.7792 C   0  0  0  0  0  0  0  0  0  0  0  0
    6.6901  -48.8728  -25.2816 O   0  0  0  0  0  0  0  0  0  0  0  0
    5.2444  -47.1061  -24.8863 N   0  0  0  0  0  0  0  0  0  0  0  0
    4.5680  -46.3913  -25.1354 H   0  0  0  0  0  0  0  0  0  0  0  0
    4.4755  -47.8921  -27.8685 C   0  0  0  0  0  0  0  0  0  0  0  0
    4.3902  -47.9481  -29.2657 C   0  0  0  0  0  0  0  0  0  0  0  0
    5.4794  -48.1941  -30.0385 C   0  0  0  0  0  0  0  0  0  0  0  0
    5.6664  -48.2925  -31.4216 C   0  0  0  0  0  0  0  0  0  0  0  0
    6.9663  -48.5436  -31.5670 N   0  0  0  0  0  0  0  0  0  0  0  0
    7.5919  -48.6060  -30.3810 N   0  0  0  0  0  0  0  0  0  0  0  0
    6.6755  -48.3885  -29.4011 C   0  0  0  0  0  0  0  0  0  0  0  0
    6.7972  -48.3408  -28.0333 C   0  0  0  0  0  0  0  0  0  0  0  0
    5.7005  -48.0895  -27.2119 C   0  0  0  0  0  0  0  0  0  0  0  0
    7.4356  -48.6941  -32.5023 H   0  0  0  0  0  0  0  0  0  0  0  0
    4.6391  -48.1837  -32.4069 N   0  0  0  0  0  0  0  0  0  0  0  0
    4.0543  -49.0377  -32.6213 H   0  0  0  0  0  0  0  0  0  0  0  0
    4.3349  -47.0217  -33.1291 C   0  0  0  0  0  0  0  0  0  0  0  0
    3.1335  -46.9814  -33.8370 C   0  0  0  0  0  0  0  0  0  0  0  0
    2.8191  -45.8384  -34.5128 C   0  0  0  0  0  0  0  0  0  0  0  0
    3.6462  -44.7462  -34.5078 C   0  0  0  0  0  0  0  0  0  0  0  0
    3.2812  -43.6426  -35.1946 F   0  0  0  0  0  0  0  0  0  0  0  0
    4.8449  -44.7772  -33.8032 C   0  0  0  0  0  0  0  0  0  0  0  0
    5.8475  -43.3475  -33.8510 Cl  0  0  0  0  0  0  0  0  0  0  0  0
    5.1743  -45.9288  -33.1168 C   0  0  0  0  0  0  0  0  0  0  0  0
    3.3626  -47.6489  -27.1416 O   0  0  0  0  0  0  0  0  0  0  0  0
    3.0225  -45.3162  -26.9380 C   0  0  0  0  0  0  0  0  0  0  0  0
    2.4032  -46.6604  -27.2288 C   0  0  0  0  0  0  0  0  0  0  0  0
    5.5761  -47.1724  -23.4568 C   0  0  0  0  0  0  0  0  0  0  0  0
    5.2863  -45.7816  -22.9274 C   0  0  0  0  0  0  0  0  0  0  0  0
    4.6265  -46.0260  -21.6286 C   0  0  0  0  0  0  0  0  0  0  0  0
    4.3583  -45.1236  -20.5938 C   0  0  0  0  0  0  0  0  0  0  0  0
    3.7334  -45.5304  -19.4375 C   0  0  0  0  0  0  0  0  0  0  0  0
    3.3650  -46.8372  -19.2892 C   0  0  0  0  0  0  0  0  0  0  0  0
    3.6369  -47.7261  -20.3248 C   0  0  0  0  0  0  0  0  0  0  0  0
    4.2667  -47.3398  -21.5029 C   0  0  0  0  0  0  0  0  0  0  0  0
    4.6498  -48.0902  -22.7526 C   0  0  0  0  0  0  0  0  0  0  0  0
    2.6820  -47.3188  -18.1249 N   0  0  0  0  0  0  0  0  0  0  0  0
    3.3683  -47.8451  -17.0205 C   0  0  0  0  0  0  0  0  0  0  0  0
    4.6568  -47.8697  -17.0522 O   0  0  0  0  0  0  0  0  0  0  0  0
    1.6515  -47.2604  -18.1335 H   0  0  0  0  0  0  0  0  0  0  0  0
    2.6730  -48.3548  -15.8633 C   0  0  0  0  0  0  0  0  0  0  0  0
    2.6267  -49.6169  -15.5587 C   0  0  0  0  0  0  0  0  0  0  0  0
    1.9100  -50.1445  -14.3639 C   0  0  0  0  0  0  0  0  0  0  0  0
    2.4811  -51.2644  -13.7394 N   0  0  0  0  0  0  0  0  0  0  0  0
    3.5184  -51.9709  -14.3696 C   0  0  0  0  0  0  0  0  0  0  0  0
    4.4109  -52.7409  -13.4277 C   0  0  0  0  0  0  0  0  0  0  0  0
    3.7014  -53.4450  -12.4217 N   0  0  0  0  0  0  0  0  0  0  0  0
    2.5890  -52.8030  -11.8268 C   0  0  0  0  0  0  0  0  0  0  0  0
    2.2717  -51.4468  -12.3502 C   0  0  0  0  0  0  0  0  0  0  0  0
    4.2272  -54.1183  -11.8727 H   0  0  0  0  0  0  0  0  0  0  0  0
 26 27  1  0  0  0
 27 25  1  0  0  0
 25  5  1  0  0  0
  5  6  2  0  0  0
  6  7  1  0  0  0
  7  8  2  0  0  0
  8 15  1  0  0  0
 15 17  1  0  0  0
 17 18  2  0  0  0
 18 19  1  0  0  0
 19 20  2  0  0  0
 20 21  1  0  0  0
 20 22  1  0  0  0
 22 23  1  0  0  0
 22 24  2  0  0  0
  8  9  1  0  0  0
  9 10  1  0  0  0
 10 11  2  0  0  0
 11 12  1  0  0  0
 12 13  2  0  0  0
 13  1  1  0  0  0
  1  2  2  0  0  0
  1  3  1  0  0  0
  3 28  1  0  0  0
 28 29  1  0  0  0
 29 30  1  0  0  0
 30 31  2  0  0  0
 31 32  1  0  0  0
 32 33  2  0  0  0
 33 37  1  0  0  0
 37 38  1  0  0  0
 38 39  2  0  0  0
 38 41  1  0  0  0
 41 42  2  0  0  0
 42 43  1  0  0  0
 43 44  1  0  0  0
 44 45  1  0  0  0
 45 46  1  0  0  0
 46 47  1  0  0  0
 47 48  1  0  0  0
 48 49  1  0  0  0
 33 34  1  0  0  0
 34 35  2  0  0  0
 35 36  1  0  0  0
 13  5  1  0  0  0
 36 28  1  0  0  0
 11  7  1  0  0  0
 35 30  1  0  0  0
 24 17  1  0  0  0
 49 44  1  0  0  0
 15 16  1  0  0  0
  9 14  1  0  0  0
  3  4  1  0  0  0
 37 40  1  0  0  0
 47 50  1  0  0  0
M  END
> <minimizedAffinity>
-6.74238

> <CNNscore>
0.2011992931

> <CNNaffinity>
5.6304101944

> <CNN_VS>
1.1328345537

> <CNNaffinity_variance>
0.2287770212

$$$$
[H]/C(C(=O)N([H])c1c([H])c([H])c2c(c1[H])C([H])([H])[C@@]([H])(N([H])C(=O)c1c(OC([H])([H])C([H])([H])[H])c([H])c3c(N([H])c4c([H])c([H])c(F)c(Cl)c4[H])n([H])nc3c1[H])C2([H])[H])=C(/[H])C([H])([H])N1C([H])([H])C([H])([H])N([H])C([H])([H])C1([H])[H]


 50 55  0  0  0  0  0  0  0  0999 V2000
    2.1818  -49.3490  -21.2202 C   0  0  0  0  0  0  0  0  0  0  0  0
    1.4966  -48.2983  -21.6302 O   0  0  0  0  0  0  0  0  0  0  0  0
    3.4773  -49.4975  -21.7070 N   0  0  0  0  0  0  0  0  0  0  0  0
    4.1020  -50.2662  -21.4848 H   0  0  0  0  0  0  0  0  0  0  0  0
    1.3950  -49.9427  -18.9211 C   0  0  0  0  0  0  0  0  0  0  0  0
    0.6203  -50.7473  -18.0757 C   0  0  0  0  0  0  0  0  0  0  0  0
   -0.1120  -51.7868  -18.5527 C   0  0  0  0  0  0  0  0  0  0  0  0
   -0.9573  -52.7193  -17.9415 C   0  0  0  0  0  0  0  0  0  0  0  0
   -1.3895  -53.4857  -18.9413 N   0  0  0  0  0  0  0  0  0  0  0  0
   -0.8761  -53.0957  -20.1187 N   0  0  0  0  0  0  0  0  0  0  0  0
   -0.0672  -52.0255  -19.9002 C   0  0  0  0  0  0  0  0  0  0  0  0
    0.6809  -51.2577  -20.7595 C   0  0  0  0  0  0  0  0  0  0  0  0
    1.4420  -50.1838  -20.3033 C   0  0  0  0  0  0  0  0  0  0  0  0
   -2.0396  -54.3094  -18.8129 H   0  0  0  0  0  0  0  0  0  0  0  0
   -1.2213  -52.8061  -16.5412 N   0  0  0  0  0  0  0  0  0  0  0  0
   -1.5640  -53.7261  -16.1493 H   0  0  0  0  0  0  0  0  0  0  0  0
   -1.0645  -51.7573  -15.6249 C   0  0  0  0  0  0  0  0  0  0  0  0
   -2.0985  -50.8290  -15.5027 C   0  0  0  0  0  0  0  0  0  0  0  0
   -1.9629  -49.8267  -14.5867 C   0  0  0  0  0  0  0  0  0  0  0  0
   -0.8496  -49.7174  -13.7959 C   0  0  0  0  0  0  0  0  0  0  0  0
   -0.7723  -48.7045  -12.9065 F   0  0  0  0  0  0  0  0  0  0  0  0
    0.1853  -50.6396  -13.9099 C   0  0  0  0  0  0  0  0  0  0  0  0
    1.5738  -50.4287  -12.8710 Cl  0  0  0  0  0  0  0  0  0  0  0  0
    0.0599  -51.6573  -14.8342 C   0  0  0  0  0  0  0  0  0  0  0  0
    2.1109  -48.9223  -18.3990 O   0  0  0  0  0  0  0  0  0  0  0  0
    3.3789  -47.4052  -17.0993 C   0  0  0  0  0  0  0  0  0  0  0  0
    2.7866  -48.7885  -17.2030 C   0  0  0  0  0  0  0  0  0  0  0  0
    4.0356  -48.4909  -22.6196 C   0  0  0  0  0  0  0  0  0  0  0  0
    5.5334  -48.7220  -22.5813 C   0  0  0  0  0  0  0  0  0  0  0  0
    5.9498  -48.5891  -23.9923 C   0  0  0  0  0  0  0  0  0  0  0  0
    7.2386  -48.4620  -24.5216 C   0  0  0  0  0  0  0  0  0  0  0  0
    7.4437  -48.3413  -25.8767 C   0  0  0  0  0  0  0  0  0  0  0  0
    6.3752  -48.3450  -26.7275 C   0  0  0  0  0  0  0  0  0  0  0  0
    5.0979  -48.4717  -26.1900 C   0  0  0  0  0  0  0  0  0  0  0  0
    4.8643  -48.5953  -24.8247 C   0  0  0  0  0  0  0  0  0  0  0  0
    3.6056  -48.7597  -24.0122 C   0  0  0  0  0  0  0  0  0  0  0  0
    6.5218  -48.2561  -28.1504 N   0  0  0  0  0  0  0  0  0  0  0  0
    6.4612  -47.0320  -28.8327 C   0  0  0  0  0  0  0  0  0  0  0  0
    6.2924  -45.9537  -28.1467 O   0  0  0  0  0  0  0  0  0  0  0  0
    6.6767  -49.1417  -28.6575 H   0  0  0  0  0  0  0  0  0  0  0  0
    6.5808  -46.9531  -30.2686 C   0  0  0  0  0  0  0  0  0  0  0  0
    6.3678  -45.8629  -30.9423 C   0  0  0  0  0  0  0  0  0  0  0  0
    6.4918  -45.7797  -32.4247 C   0  0  0  0  0  0  0  0  0  0  0  0
    5.7801  -46.7375  -33.1639 N   0  0  0  0  0  0  0  0  0  0  0  0
    4.3825  -46.8181  -33.0531 C   0  0  0  0  0  0  0  0  0  0  0  0
    3.6962  -47.4325  -34.2482 C   0  0  0  0  0  0  0  0  0  0  0  0
    4.3480  -48.5904  -34.7438 N   0  0  0  0  0  0  0  0  0  0  0  0
    5.7629  -48.5851  -34.7834 C   0  0  0  0  0  0  0  0  0  0  0  0
    6.4174  -47.3514  -34.2702 C   0  0  0  0  0  0  0  0  0  0  0  0
    3.8429  -49.1465  -35.4270 H   0  0  0  0  0  0  0  0  0  0  0  0
 26 27  1  0  0  0
 27 25  1  0  0  0
 25  5  1  0  0  0
  5  6  2  0  0  0
  6  7  1  0  0  0
  7  8  2  0  0  0
  8 15  1  0  0  0
 15 17  1  0  0  0
 17 18  2  0  0  0
 18 19  1  0  0  0
 19 20  2  0  0  0
 20 21  1  0  0  0
 20 22  1  0  0  0
 22 23  1  0  0  0
 22 24  2  0  0  0
  8  9  1  0  0  0
  9 10  1  0  0  0
 10 11  2  0  0  0
 11 12  1  0  0  0
 12 13  2  0  0  0
 13  1  1  0  0  0
  1  2  2  0  0  0
  1  3  1  0  0  0
  3 28  1  0  0  0
 28 29  1  0  0  0
 29 30  1  0  0  0
 30 31  2  0  0  0
 31 32  1  0  0  0
 32 33  2  0  0  0
 33 37  1  0  0  0
 37 38  1  0  0  0
 38 39  2  0  0  0
 38 41  1  0  0  0
 41 42  2  0  0  0
 42 43  1  0  0  0
 43 44  1  0  0  0
 44 45  1  0  0  0
 45 46  1  0  0  0
 46 47  1  0  0  0
 47 48  1  0  0  0
 48 49  1  0  0  0
 33 34  1  0  0  0
 34 35  2  0  0  0
 35 36  1  0  0  0
 13  5  1  0  0  0
 36 28  1  0  0  0
 11  7  1  0  0  0
 35 30  1  0  0  0
 24 17  1  0  0  0
 49 44  1  0  0  0
 15 16  1  0  0  0
  9 14  1  0  0  0
  3  4  1  0  0  0
 37 40  1  0  0  0
 47 50  1  0  0  0
M  END
> <minimizedAffinity>
-7.28311

> <CNNscore>
0.1856755018

> <CNNaffinity>
6.3017144203

> <CNN_VS>
1.1700739861

> <CNNaffinity_variance>
0.3158133030

$$$$
