[H]c1nc(N([H])c2c([H])c([H])c(N3C([H])([H])C([H])([H])C([H])([H])[C@@]([H])(N4C([H])([H])C([H])([H])N(C([H])([H])[H])C([H])([H])C4([H])[H])C3([H])[H])c([H])c2OC([H])([H])[H])nc(N([H])c2c([H])c([H])c([H])c([H])c2S(=O)(=O)C([H])(C([H])([H])[H])C([H])([H])[H])c1Cl


 44 48  0  0  0  0  0  0  0  0999 V2000
   -0.6181  -51.5165  -20.8232 N   0  0  0  0  0  0  0  0  0  0  0  0
   -1.1351  -50.6495  -21.1999 H   0  0  0  0  0  0  0  0  0  0  0  0
   -0.7142  -52.6500  -21.6399 C   0  0  0  0  0  0  0  0  0  0  0  0
   -1.5722  -53.6732  -21.4868 N   0  0  0  0  0  0  0  0  0  0  0  0
   -1.6192  -54.7216  -22.3112 C   0  0  0  0  0  0  0  0  0  0  0  0
   -0.7603  -54.7892  -23.3812 C   0  0  0  0  0  0  0  0  0  0  0  0
   -0.7776  -56.1352  -24.4857 Cl  0  0  0  0  0  0  0  0  0  0  0  0
    0.1558  -53.7477  -23.5889 C   0  0  0  0  0  0  0  0  0  0  0  0
    0.1041  -52.7628  -22.7002 N   0  0  0  0  0  0  0  0  0  0  0  0
    1.0103  -53.8420  -24.7042 N   0  0  0  0  0  0  0  0  0  0  0  0
    0.9977  -54.7613  -25.2318 H   0  0  0  0  0  0  0  0  0  0  0  0
    1.8709  -52.8537  -25.1882 C   0  0  0  0  0  0  0  0  0  0  0  0
    2.8444  -52.2561  -24.4070 C   0  0  0  0  0  0  0  0  0  0  0  0
    3.6916  -51.2616  -24.9184 C   0  0  0  0  0  0  0  0  0  0  0  0
    3.5249  -50.8966  -26.2266 C   0  0  0  0  0  0  0  0  0  0  0  0
    2.5636  -51.4744  -27.0284 C   0  0  0  0  0  0  0  0  0  0  0  0
    1.7288  -52.4518  -26.5315 C   0  0  0  0  0  0  0  0  0  0  0  0
    0.5184  -53.1987  -27.5126 S   0  0  0  0  0  0  0  0  0  0  0  0
    0.4923  -54.7006  -27.3364 O   0  0  0  0  0  0  0  0  0  0  0  0
    0.6642  -52.9212  -28.9824 O   0  0  0  0  0  0  0  0  0  0  0  0
   -1.1323  -52.6586  -27.0912 C   0  0  0  0  0  0  0  0  0  0  0  0
   -1.1329  -51.4550  -26.1907 C   0  0  0  0  0  0  0  0  0  0  0  0
   -2.0469  -52.5715  -28.2656 C   0  0  0  0  0  0  0  0  0  0  0  0
    1.2205  -50.5822  -19.5265 C   0  0  0  0  0  0  0  0  0  0  0  0
    1.8815  -50.3779  -18.3415 C   0  0  0  0  0  0  0  0  0  0  0  0
    1.4552  -50.9090  -17.1476 C   0  0  0  0  0  0  0  0  0  0  0  0
    0.3088  -51.6756  -17.1843 C   0  0  0  0  0  0  0  0  0  0  0  0
   -0.3635  -51.8828  -18.3976 C   0  0  0  0  0  0  0  0  0  0  0  0
    0.0500  -51.3601  -19.5901 C   0  0  0  0  0  0  0  0  0  0  0  0
    2.1343  -50.7249  -15.9037 N   0  0  0  0  0  0  0  0  0  0  0  0
    3.5736  -51.0063  -15.8355 C   0  0  0  0  0  0  0  0  0  0  0  0
    3.9894  -51.6473  -14.5522 C   0  0  0  0  0  0  0  0  0  0  0  0
    3.0878  -51.3630  -13.3803 C   0  0  0  0  0  0  0  0  0  0  0  0
    2.4247  -50.0027  -13.6359 C   0  0  0  0  0  0  0  0  0  0  0  0
    1.4316  -50.2464  -14.7369 C   0  0  0  0  0  0  0  0  0  0  0  0
    3.4718  -49.0923  -13.9349 N   0  0  0  0  0  0  0  0  0  0  0  0
    3.0941  -47.7614  -14.2898 C   0  0  0  0  0  0  0  0  0  0  0  0
    4.3085  -47.1050  -14.9705 C   0  0  0  0  0  0  0  0  0  0  0  0
    5.4949  -47.4591  -14.2549 N   0  0  0  0  0  0  0  0  0  0  0  0
    6.4582  -46.4015  -14.3320 C   0  0  0  0  0  0  0  0  0  0  0  0
    5.2295  -47.7673  -12.8642 C   0  0  0  0  0  0  0  0  0  0  0  0
    4.3198  -48.9733  -12.7340 C   0  0  0  0  0  0  0  0  0  0  0  0
    1.3794  -48.6865  -21.0165 C   0  0  0  0  0  0  0  0  0  0  0  0
    1.6646  -50.0378  -20.7204 O   0  0  0  0  0  0  0  0  0  0  0  0
 43 44  1  0  0  0
 44 24  1  0  0  0
 24 25  2  0  0  0
 25 26  1  0  0  0
 26 27  2  0  0  0
 27 28  1  0  0  0
 28 29  2  0  0  0
 29  1  1  0  0  0
  1  3  1  0  0  0
  3  4  2  0  0  0
  4  5  1  0  0  0
  5  6  2  0  0  0
  6  7  1  0  0  0
  6  8  1  0  0  0
  8 10  1  0  0  0
 10 12  1  0  0  0
 12 13  2  0  0  0
 13 14  1  0  0  0
 14 15  2  0  0  0
 15 16  1  0  0  0
 16 17  2  0  0  0
 17 18  1  0  0  0
 18 19  2  0  0  0
 18 20  2  0  0  0
 18 21  1  0  0  0
 21 22  1  0  0  0
 21 23  1  0  0  0
  8  9  2  0  0  0
 26 30  1  0  0  0
 30 31  1  0  0  0
 31 32  1  0  0  0
 32 33  1  0  0  0
 33 34  1  0  0  0
 34 35  1  0  0  0
 34 36  1  0  0  0
 36 37  1  0  0  0
 37 38  1  0  0  0
 38 39  1  0  0  0
 39 40  1  0  0  0
 39 41  1  0  0  0
 41 42  1  0  0  0
 29 24  1  0  0  0
  9  3  1  0  0  0
 35 30  1  0  0  0
 42 36  1  0  0  0
 17 12  1  0  0  0
  1  2  1  0  0  0
 10 11  1  0  0  0
M  END
> <minimizedAffinity>
-7.46718

> <CNNscore>
0.4373832941

> <CNNaffinity>
7.5877900124

> <CNN_VS>
3.3187725544

> <CNNaffinity_variance>
0.0765080899

$$$$
[H]c1nc(N([H])c2c([H])c([H])c(N3C([H])([H])C([H])([H])C([H])([H])[C@@]([H])(N4C([H])([H])C([H])([H])N(C([H])([H])[H])C([H])([H])C4([H])[H])C3([H])[H])c([H])c2OC([H])([H])[H])nc(N([H])c2c([H])c([H])c([H])c([H])c2S(=O)(=O)C([H])(C([H])([H])[H])C([H])([H])[H])c1Cl


 44 48  0  0  0  0  0  0  0  0999 V2000
    0.8960  -53.1144  -23.3145 N   0  0  0  0  0  0  0  0  0  0  0  0
    0.8103  -54.0556  -23.8319 H   0  0  0  0  0  0  0  0  0  0  0  0
    0.3444  -53.1072  -22.0274 C   0  0  0  0  0  0  0  0  0  0  0  0
   -0.4857  -54.0290  -21.5100 N   0  0  0  0  0  0  0  0  0  0  0  0
   -0.9677  -53.9680  -20.2671 C   0  0  0  0  0  0  0  0  0  0  0  0
   -0.6168  -52.9222  -19.4481 C   0  0  0  0  0  0  0  0  0  0  0  0
   -1.2189  -52.7927  -17.8195 Cl  0  0  0  0  0  0  0  0  0  0  0  0
    0.2477  -51.9319  -19.9370 C   0  0  0  0  0  0  0  0  0  0  0  0
    0.6574  -52.1053  -21.1877 N   0  0  0  0  0  0  0  0  0  0  0  0
    0.5986  -50.8829  -19.0655 N   0  0  0  0  0  0  0  0  0  0  0  0
    0.2735  -50.9755  -18.0608 H   0  0  0  0  0  0  0  0  0  0  0  0
    1.3292  -49.7356  -19.3843 C   0  0  0  0  0  0  0  0  0  0  0  0
    1.1970  -49.0714  -20.5911 C   0  0  0  0  0  0  0  0  0  0  0  0
    1.9481  -47.9239  -20.8865 C   0  0  0  0  0  0  0  0  0  0  0  0
    2.8244  -47.4763  -19.9356 C   0  0  0  0  0  0  0  0  0  0  0  0
    2.9771  -48.1177  -18.7247 C   0  0  0  0  0  0  0  0  0  0  0  0
    2.2419  -49.2451  -18.4290 C   0  0  0  0  0  0  0  0  0  0  0  0
    2.4067  -50.0678  -16.9186 S   0  0  0  0  0  0  0  0  0  0  0  0
    3.3065  -51.2785  -17.0270 O   0  0  0  0  0  0  0  0  0  0  0  0
    1.1042  -50.5275  -16.3262 O   0  0  0  0  0  0  0  0  0  0  0  0
    3.1624  -49.0456  -15.6623 C   0  0  0  0  0  0  0  0  0  0  0  0
    2.2744  -47.9124  -15.2299 C   0  0  0  0  0  0  0  0  0  0  0  0
    3.7784  -49.8270  -14.5517 C   0  0  0  0  0  0  0  0  0  0  0  0
    1.1296  -51.7635  -25.3283 C   0  0  0  0  0  0  0  0  0  0  0  0
    1.7022  -50.7348  -26.0332 C   0  0  0  0  0  0  0  0  0  0  0  0
    2.6977  -49.9397  -25.5175 C   0  0  0  0  0  0  0  0  0  0  0  0
    3.1122  -50.2207  -24.2319 C   0  0  0  0  0  0  0  0  0  0  0  0
    2.5251  -51.2736  -23.5151 C   0  0  0  0  0  0  0  0  0  0  0  0
    1.5350  -52.0702  -24.0165 C   0  0  0  0  0  0  0  0  0  0  0  0
    3.3213  -48.8735  -26.2364 N   0  0  0  0  0  0  0  0  0  0  0  0
    3.2984  -47.5236  -25.6597 C   0  0  0  0  0  0  0  0  0  0  0  0
    3.1090  -46.4493  -26.6799 C   0  0  0  0  0  0  0  0  0  0  0  0
    3.5604  -46.8089  -28.0705 C   0  0  0  0  0  0  0  0  0  0  0  0
    4.6764  -47.8531  -27.9309 C   0  0  0  0  0  0  0  0  0  0  0  0
    3.9866  -49.1147  -27.4947 C   0  0  0  0  0  0  0  0  0  0  0  0
    5.6214  -47.3152  -27.0185 N   0  0  0  0  0  0  0  0  0  0  0  0
    6.6582  -48.1878  -26.5670 C   0  0  0  0  0  0  0  0  0  0  0  0
    7.2745  -47.5555  -25.3063 C   0  0  0  0  0  0  0  0  0  0  0  0
    7.4166  -46.1472  -25.5101 N   0  0  0  0  0  0  0  0  0  0  0  0
    8.5548  -45.6522  -24.7946 C   0  0  0  0  0  0  0  0  0  0  0  0
    7.5424  -45.8020  -26.9116 C   0  0  0  0  0  0  0  0  0  0  0  0
    6.2954  -46.1849  -27.6845 C   0  0  0  0  0  0  0  0  0  0  0  0
   -1.1471  -51.9921  -26.1052 C   0  0  0  0  0  0  0  0  0  0  0  0
    0.1262  -52.5541  -25.8642 O   0  0  0  0  0  0  0  0  0  0  0  0
 43 44  1  0  0  0
 44 24  1  0  0  0
 24 25  2  0  0  0
 25 26  1  0  0  0
 26 27  2  0  0  0
 27 28  1  0  0  0
 28 29  2  0  0  0
 29  1  1  0  0  0
  1  3  1  0  0  0
  3  4  2  0  0  0
  4  5  1  0  0  0
  5  6  2  0  0  0
  6  7  1  0  0  0
  6  8  1  0  0  0
  8 10  1  0  0  0
 10 12  1  0  0  0
 12 13  2  0  0  0
 13 14  1  0  0  0
 14 15  2  0  0  0
 15 16  1  0  0  0
 16 17  2  0  0  0
 17 18  1  0  0  0
 18 19  2  0  0  0
 18 20  2  0  0  0
 18 21  1  0  0  0
 21 22  1  0  0  0
 21 23  1  0  0  0
  8  9  2  0  0  0
 26 30  1  0  0  0
 30 31  1  0  0  0
 31 32  1  0  0  0
 32 33  1  0  0  0
 33 34  1  0  0  0
 34 35  1  0  0  0
 34 36  1  0  0  0
 36 37  1  0  0  0
 37 38  1  0  0  0
 38 39  1  0  0  0
 39 40  1  0  0  0
 39 41  1  0  0  0
 41 42  1  0  0  0
 29 24  1  0  0  0
  9  3  1  0  0  0
 35 30  1  0  0  0
 42 36  1  0  0  0
 17 12  1  0  0  0
  1  2  1  0  0  0
 10 11  1  0  0  0
M  END
> <minimizedAffinity>
-7.01520

> <CNNscore>
0.2417778075

> <CNNaffinity>
7.5097188950

> <CNN_VS>
1.8156833649

> <CNNaffinity_variance>
0.2327578515

$$$$
[H]c1nc(N([H])c2c([H])c([H])c(N3C([H])([H])C([H])([H])C([H])([H])[C@@]([H])(N4C([H])([H])C([H])([H])N(C([H])([H])[H])C([H])([H])C4([H])[H])C3([H])[H])c([H])c2OC([H])([H])[H])nc(N([H])c2c([H])c([H])c([H])c([H])c2S(=O)(=O)C([H])(C([H])([H])[H])C([H])([H])[H])c1Cl


 44 48  0  0  0  0  0  0  0  0999 V2000
    0.3119  -51.1390  -19.1455 N   0  0  0  0  0  0  0  0  0  0  0  0
   -0.1449  -51.1611  -18.1699 H   0  0  0  0  0  0  0  0  0  0  0  0
   -0.1056  -52.1624  -20.0053 C   0  0  0  0  0  0  0  0  0  0  0  0
   -1.0272  -53.1033  -19.7372 N   0  0  0  0  0  0  0  0  0  0  0  0
   -1.3884  -54.0468  -20.6092 C   0  0  0  0  0  0  0  0  0  0  0  0
   -0.8079  -54.0862  -21.8537 C   0  0  0  0  0  0  0  0  0  0  0  0
   -1.2404  -55.2969  -23.0279 Cl  0  0  0  0  0  0  0  0  0  0  0  0
    0.1598  -53.1272  -22.1868 C   0  0  0  0  0  0  0  0  0  0  0  0
    0.4323  -52.2435  -21.2345 N   0  0  0  0  0  0  0  0  0  0  0  0
    0.7227  -53.1877  -23.4762 N   0  0  0  0  0  0  0  0  0  0  0  0
    0.6419  -54.1152  -23.9832 H   0  0  0  0  0  0  0  0  0  0  0  0
    1.3745  -52.1565  -24.1569 C   0  0  0  0  0  0  0  0  0  0  0  0
    2.2504  -51.2826  -23.5370 C   0  0  0  0  0  0  0  0  0  0  0  0
    2.8870  -50.2521  -24.2447 C   0  0  0  0  0  0  0  0  0  0  0  0
    2.6131  -50.1357  -25.5804 C   0  0  0  0  0  0  0  0  0  0  0  0
    1.7449  -50.9916  -26.2243 C   0  0  0  0  0  0  0  0  0  0  0  0
    1.1169  -52.0058  -25.5342 C   0  0  0  0  0  0  0  0  0  0  0  0
    0.0282  -53.0976  -26.3139 S   0  0  0  0  0  0  0  0  0  0  0  0
   -1.2729  -53.2395  -25.5561 O   0  0  0  0  0  0  0  0  0  0  0  0
    0.5848  -54.4793  -26.5136 O   0  0  0  0  0  0  0  0  0  0  0  0
   -0.4486  -52.5401  -27.9436 C   0  0  0  0  0  0  0  0  0  0  0  0
    0.3174  -53.2316  -29.0366 C   0  0  0  0  0  0  0  0  0  0  0  0
   -1.9252  -52.4828  -28.1436 C   0  0  0  0  0  0  0  0  0  0  0  0
    2.4067  -50.0226  -18.5977 C   0  0  0  0  0  0  0  0  0  0  0  0
    3.3494  -49.0492  -18.8142 C   0  0  0  0  0  0  0  0  0  0  0  0
    3.2253  -48.0947  -19.7954 C   0  0  0  0  0  0  0  0  0  0  0  0
    2.0886  -48.1514  -20.5752 C   0  0  0  0  0  0  0  0  0  0  0  0
    1.1269  -49.1473  -20.3502 C   0  0  0  0  0  0  0  0  0  0  0  0
    1.2393  -50.1013  -19.3788 C   0  0  0  0  0  0  0  0  0  0  0  0
    4.1841  -47.0613  -20.0303 N   0  0  0  0  0  0  0  0  0  0  0  0
    4.1989  -45.8947  -19.1391 C   0  0  0  0  0  0  0  0  0  0  0  0
    4.4781  -44.6118  -19.8511 C   0  0  0  0  0  0  0  0  0  0  0  0
    5.2539  -44.7544  -21.1336 C   0  0  0  0  0  0  0  0  0  0  0  0
    6.1104  -46.0217  -21.0087 C   0  0  0  0  0  0  0  0  0  0  0  0
    5.1416  -47.1661  -21.1057 C   0  0  0  0  0  0  0  0  0  0  0  0
    6.8199  -45.9112  -19.7843 N   0  0  0  0  0  0  0  0  0  0  0  0
    7.5365  -47.0649  -19.3421 C   0  0  0  0  0  0  0  0  0  0  0  0
    7.8485  -46.8674  -17.8479 C   0  0  0  0  0  0  0  0  0  0  0  0
    8.2550  -45.5139  -17.6291 N   0  0  0  0  0  0  0  0  0  0  0  0
    9.1976  -45.4442  -16.5525 C   0  0  0  0  0  0  0  0  0  0  0  0
    8.8329  -44.9126  -18.8138 C   0  0  0  0  0  0  0  0  0  0  0  0
    7.8210  -44.8395  -19.9406 C   0  0  0  0  0  0  0  0  0  0  0  0
    3.6798  -50.9366  -16.7585 C   0  0  0  0  0  0  0  0  0  0  0  0
    2.5493  -50.9775  -17.6043 O   0  0  0  0  0  0  0  0  0  0  0  0
 43 44  1  0  0  0
 44 24  1  0  0  0
 24 25  2  0  0  0
 25 26  1  0  0  0
 26 27  2  0  0  0
 27 28  1  0  0  0
 28 29  2  0  0  0
 29  1  1  0  0  0
  1  3  1  0  0  0
  3  4  2  0  0  0
  4  5  1  0  0  0
  5  6  2  0  0  0
  6  7  1  0  0  0
  6  8  1  0  0  0
  8 10  1  0  0  0
 10 12  1  0  0  0
 12 13  2  0  0  0
 13 14  1  0  0  0
 14 15  2  0  0  0
 15 16  1  0  0  0
 16 17  2  0  0  0
 17 18  1  0  0  0
 18 19  2  0  0  0
 18 20  2  0  0  0
 18 21  1  0  0  0
 21 22  1  0  0  0
 21 23  1  0  0  0
  8  9  2  0  0  0
 26 30  1  0  0  0
 30 31  1  0  0  0
 31 32  1  0  0  0
 32 33  1  0  0  0
 33 34  1  0  0  0
 34 35  1  0  0  0
 34 36  1  0  0  0
 36 37  1  0  0  0
 37 38  1  0  0  0
 38 39  1  0  0  0
 39 40  1  0  0  0
 39 41  1  0  0  0
 41 42  1  0  0  0
 29 24  1  0  0  0
  9  3  1  0  0  0
 35 30  1  0  0  0
 42 36  1  0  0  0
 17 12  1  0  0  0
  1  2  1  0  0  0
 10 11  1  0  0  0
M  END
> <minimizedAffinity>
-7.77524

> <CNNscore>
0.1671858579

> <CNNaffinity>
7.0846695900

> <CNN_VS>
1.1844565868

> <CNNaffinity_variance>
0.2428840697

$$$$
[H]c1nc(N([H])c2c([H])c([H])c(N3C([H])([H])C([H])([H])C([H])([H])[C@@]([H])(N4C([H])([H])C([H])([H])N(C([H])([H])[H])C([H])([H])C4([H])[H])C3([H])[H])c([H])c2OC([H])([H])[H])nc(N([H])c2c([H])c([H])c([H])c([H])c2S(=O)(=O)C([H])(C([H])([H])[H])C([H])([H])[H])c1Cl


 44 48  0  0  0  0  0  0  0  0999 V2000
    0.9165  -50.7111  -19.7944 N   0  0  0  0  0  0  0  0  0  0  0  0
    0.3143  -50.2570  -19.0250 H   0  0  0  0  0  0  0  0  0  0  0  0
    0.3094  -51.7934  -20.4435 C   0  0  0  0  0  0  0  0  0  0  0  0
   -0.6146  -52.6193  -19.9233 N   0  0  0  0  0  0  0  0  0  0  0  0
   -1.1632  -53.6284  -20.6029 C   0  0  0  0  0  0  0  0  0  0  0  0
   -0.7863  -53.8620  -21.9032 C   0  0  0  0  0  0  0  0  0  0  0  0
   -1.4684  -55.1659  -22.8340 Cl  0  0  0  0  0  0  0  0  0  0  0  0
    0.1742  -53.0296  -22.4962 C   0  0  0  0  0  0  0  0  0  0  0  0
    0.6442  -52.0630  -21.7170 N   0  0  0  0  0  0  0  0  0  0  0  0
    0.5254  -53.2881  -23.8352 N   0  0  0  0  0  0  0  0  0  0  0  0
   -0.2010  -53.7851  -24.4259 H   0  0  0  0  0  0  0  0  0  0  0  0
    1.7275  -52.9588  -24.4663 C   0  0  0  0  0  0  0  0  0  0  0  0
    2.8275  -52.4728  -23.7816 C   0  0  0  0  0  0  0  0  0  0  0  0
    4.0208  -52.1450  -24.4425 C   0  0  0  0  0  0  0  0  0  0  0  0
    4.0649  -52.3223  -25.7986 C   0  0  0  0  0  0  0  0  0  0  0  0
    2.9847  -52.8045  -26.5068 C   0  0  0  0  0  0  0  0  0  0  0  0
    1.8101  -53.1283  -25.8629 C   0  0  0  0  0  0  0  0  0  0  0  0
    0.4413  -53.7399  -26.7216 S   0  0  0  0  0  0  0  0  0  0  0  0
   -0.4117  -54.6439  -25.8599 O   0  0  0  0  0  0  0  0  0  0  0  0
    0.7913  -54.5053  -27.9668 O   0  0  0  0  0  0  0  0  0  0  0  0
   -0.6639  -52.4424  -27.2595 C   0  0  0  0  0  0  0  0  0  0  0  0
   -1.1834  -52.6678  -28.6519 C   0  0  0  0  0  0  0  0  0  0  0  0
   -1.6991  -52.0861  -26.2472 C   0  0  0  0  0  0  0  0  0  0  0  0
    3.2413  -50.4454  -19.1165 C   0  0  0  0  0  0  0  0  0  0  0  0
    4.5047  -49.9440  -19.3046 C   0  0  0  0  0  0  0  0  0  0  0  0
    4.8340  -49.1264  -20.3592 C   0  0  0  0  0  0  0  0  0  0  0  0
    3.8220  -48.8193  -21.2452 C   0  0  0  0  0  0  0  0  0  0  0  0
    2.5318  -49.3331  -21.0490 C   0  0  0  0  0  0  0  0  0  0  0  0
    2.1925  -50.1467  -20.0053 C   0  0  0  0  0  0  0  0  0  0  0  0
    6.1372  -48.5782  -20.5682 N   0  0  0  0  0  0  0  0  0  0  0  0
    6.4635  -48.0116  -21.8827 C   0  0  0  0  0  0  0  0  0  0  0  0
    7.8643  -48.2952  -22.3163 C   0  0  0  0  0  0  0  0  0  0  0  0
    8.8373  -48.5429  -21.1943 C   0  0  0  0  0  0  0  0  0  0  0  0
    8.3178  -47.7840  -19.9656 C   0  0  0  0  0  0  0  0  0  0  0  0
    7.1128  -48.5541  -19.5043 C   0  0  0  0  0  0  0  0  0  0  0  0
    8.0780  -46.4497  -20.3861 N   0  0  0  0  0  0  0  0  0  0  0  0
    7.4000  -45.5910  -19.4680 C   0  0  0  0  0  0  0  0  0  0  0  0
    6.8795  -44.3830  -20.2674 C   0  0  0  0  0  0  0  0  0  0  0  0
    7.8860  -43.9649  -21.1932 N   0  0  0  0  0  0  0  0  0  0  0  0
    7.8124  -42.5499  -21.4044 C   0  0  0  0  0  0  0  0  0  0  0  0
    9.2210  -44.3166  -20.7535 C   0  0  0  0  0  0  0  0  0  0  0  0
    9.3856  -45.8203  -20.6498 C   0  0  0  0  0  0  0  0  0  0  0  0
    3.3551  -50.9151  -16.7489 C   0  0  0  0  0  0  0  0  0  0  0  0
    2.9279  -51.2692  -18.0478 O   0  0  0  0  0  0  0  0  0  0  0  0
 43 44  1  0  0  0
 44 24  1  0  0  0
 24 25  2  0  0  0
 25 26  1  0  0  0
 26 27  2  0  0  0
 27 28  1  0  0  0
 28 29  2  0  0  0
 29  1  1  0  0  0
  1  3  1  0  0  0
  3  4  2  0  0  0
  4  5  1  0  0  0
  5  6  2  0  0  0
  6  7  1  0  0  0
  6  8  1  0  0  0
  8 10  1  0  0  0
 10 12  1  0  0  0
 12 13  2  0  0  0
 13 14  1  0  0  0
 14 15  2  0  0  0
 15 16  1  0  0  0
 16 17  2  0  0  0
 17 18  1  0  0  0
 18 19  2  0  0  0
 18 20  2  0  0  0
 18 21  1  0  0  0
 21 22  1  0  0  0
 21 23  1  0  0  0
  8  9  2  0  0  0
 26 30  1  0  0  0
 30 31  1  0  0  0
 31 32  1  0  0  0
 32 33  1  0  0  0
 33 34  1  0  0  0
 34 35  1  0  0  0
 34 36  1  0  0  0
 36 37  1  0  0  0
 37 38  1  0  0  0
 38 39  1  0  0  0
 39 40  1  0  0  0
 39 41  1  0  0  0
 41 42  1  0  0  0
 29 24  1  0  0  0
  9  3  1  0  0  0
 35 30  1  0  0  0
 42 36  1  0  0  0
 17 12  1  0  0  0
  1  2  1  0  0  0
 10 11  1  0  0  0
M  END
> <minimizedAffinity>
-7.98372

> <CNNscore>
0.1644399464

> <CNNaffinity>
7.3556647301

> <CNN_VS>
1.2095651627

> <CNNaffinity_variance>
0.1965512931

$$$$
[H]c1nc(N([H])c2c([H])c([H])c(N3C([H])([H])C([H])([H])C([H])([H])[C@@]([H])(N4C([H])([H])C([H])([H])N(C([H])([H])[H])C([H])([H])C4([H])[H])C3([H])[H])c([H])c2OC([H])([H])[H])nc(N([H])c2c([H])c([H])c([H])c([H])c2S(=O)(=O)C([H])(C([H])([H])[H])C([H])([H])[H])c1Cl


 44 48  0  0  0  0  0  0  0  0999 V2000
    0.6834  -51.0231  -19.7628 N   0  0  0  0  0  0  0  0  0  0  0  0
    0.4094  -51.0100  -18.7209 H   0  0  0  0  0  0  0  0  0  0  0  0
    0.1486  -52.0935  -20.4902 C   0  0  0  0  0  0  0  0  0  0  0  0
   -0.8236  -52.9278  -20.0835 N   0  0  0  0  0  0  0  0  0  0  0  0
   -1.2971  -53.9247  -20.8339 C   0  0  0  0  0  0  0  0  0  0  0  0
   -0.7865  -54.1360  -22.0916 C   0  0  0  0  0  0  0  0  0  0  0  0
   -1.3663  -55.4232  -23.1108 Cl  0  0  0  0  0  0  0  0  0  0  0  0
    0.2295  -53.2940  -22.5669 C   0  0  0  0  0  0  0  0  0  0  0  0
    0.6145  -52.3413  -21.7264 N   0  0  0  0  0  0  0  0  0  0  0  0
    0.7186  -53.5295  -23.8662 N   0  0  0  0  0  0  0  0  0  0  0  0
    0.4831  -54.4696  -24.2958 H   0  0  0  0  0  0  0  0  0  0  0  0
    1.4795  -52.6566  -24.6478 C   0  0  0  0  0  0  0  0  0  0  0  0
    2.6283  -52.0398  -24.1843 C   0  0  0  0  0  0  0  0  0  0  0  0
    3.3700  -51.1630  -24.9900 C   0  0  0  0  0  0  0  0  0  0  0  0
    2.9188  -50.9336  -26.2613 C   0  0  0  0  0  0  0  0  0  0  0  0
    1.7778  -51.5339  -26.7498 C   0  0  0  0  0  0  0  0  0  0  0  0
    1.0454  -52.3962  -25.9630 C   0  0  0  0  0  0  0  0  0  0  0  0
   -0.3854  -53.1680  -26.5483 S   0  0  0  0  0  0  0  0  0  0  0  0
   -1.5605  -52.9654  -25.6180 O   0  0  0  0  0  0  0  0  0  0  0  0
   -0.2368  -54.6472  -26.7690 O   0  0  0  0  0  0  0  0  0  0  0  0
   -0.9246  -52.5076  -28.1190 C   0  0  0  0  0  0  0  0  0  0  0  0
   -0.1181  -53.0338  -29.2732 C   0  0  0  0  0  0  0  0  0  0  0  0
   -2.4032  -52.5532  -28.3066 C   0  0  0  0  0  0  0  0  0  0  0  0
    2.8789  -49.9693  -19.8256 C   0  0  0  0  0  0  0  0  0  0  0  0
    3.7367  -48.9896  -20.2585 C   0  0  0  0  0  0  0  0  0  0  0  0
    3.3416  -47.9609  -21.0800 C   0  0  0  0  0  0  0  0  0  0  0  0
    2.0164  -47.9479  -21.4635 C   0  0  0  0  0  0  0  0  0  0  0  0
    1.1426  -48.9505  -21.0182 C   0  0  0  0  0  0  0  0  0  0  0  0
    1.5234  -49.9779  -20.2022 C   0  0  0  0  0  0  0  0  0  0  0  0
    4.2109  -46.9201  -21.5310 N   0  0  0  0  0  0  0  0  0  0  0  0
    5.3353  -47.2686  -22.4083 C   0  0  0  0  0  0  0  0  0  0  0  0
    6.5741  -46.4862  -22.1189 C   0  0  0  0  0  0  0  0  0  0  0  0
    6.3414  -45.1478  -21.4696 C   0  0  0  0  0  0  0  0  0  0  0  0
    4.9485  -44.6689  -21.9009 C   0  0  0  0  0  0  0  0  0  0  0  0
    3.9803  -45.5448  -21.1573 C   0  0  0  0  0  0  0  0  0  0  0  0
    4.9092  -44.7627  -23.3167 N   0  0  0  0  0  0  0  0  0  0  0  0
    3.6337  -44.6160  -23.9424 C   0  0  0  0  0  0  0  0  0  0  0  0
    3.7574  -45.1697  -25.3732 C   0  0  0  0  0  0  0  0  0  0  0  0
    5.0017  -44.7437  -25.9345 N   0  0  0  0  0  0  0  0  0  0  0  0
    4.8768  -44.5718  -27.3513 C   0  0  0  0  0  0  0  0  0  0  0  0
    5.4823  -43.5123  -25.3414 C   0  0  0  0  0  0  0  0  0  0  0  0
    5.7612  -43.6891  -23.8616 C   0  0  0  0  0  0  0  0  0  0  0  0
    3.4384  -50.7636  -17.6131 C   0  0  0  0  0  0  0  0  0  0  0  0
    3.2954  -50.9995  -18.9984 O   0  0  0  0  0  0  0  0  0  0  0  0
 43 44  1  0  0  0
 44 24  1  0  0  0
 24 25  2  0  0  0
 25 26  1  0  0  0
 26 27  2  0  0  0
 27 28  1  0  0  0
 28 29  2  0  0  0
 29  1  1  0  0  0
  1  3  1  0  0  0
  3  4  2  0  0  0
  4  5  1  0  0  0
  5  6  2  0  0  0
  6  7  1  0  0  0
  6  8  1  0  0  0
  8 10  1  0  0  0
 10 12  1  0  0  0
 12 13  2  0  0  0
 13 14  1  0  0  0
 14 15  2  0  0  0
 15 16  1  0  0  0
 16 17  2  0  0  0
 17 18  1  0  0  0
 18 19  2  0  0  0
 18 20  2  0  0  0
 18 21  1  0  0  0
 21 22  1  0  0  0
 21 23  1  0  0  0
  8  9  2  0  0  0
 26 30  1  0  0  0
 30 31  1  0  0  0
 31 32  1  0  0  0
 32 33  1  0  0  0
 33 34  1  0  0  0
 34 35  1  0  0  0
 34 36  1  0  0  0
 36 37  1  0  0  0
 37 38  1  0  0  0
 38 39  1  0  0  0
 39 40  1  0  0  0
 39 41  1  0  0  0
 41 42  1  0  0  0
 29 24  1  0  0  0
  9  3  1  0  0  0
 35 30  1  0  0  0
 42 36  1  0  0  0
 17 12  1  0  0  0
  1  2  1  0  0  0
 10 11  1  0  0  0
M  END
> <minimizedAffinity>
-8.15002

> <CNNscore>
0.1564564854

> <CNNaffinity>
7.2508287430

> <CNN_VS>
1.1344392300

> <CNNaffinity_variance>
0.3393560350

$$$$
[H]c1nc(N([H])c2c([H])c([H])c(N3C([H])([H])C([H])([H])C([H])([H])[C@@]([H])(N4C([H])([H])C([H])([H])N(C([H])([H])[H])C([H])([H])C4([H])[H])C3([H])[H])c([H])c2OC([H])([H])[H])nc(N([H])c2c([H])c([H])c([H])c([H])c2S(=O)(=O)C([H])(C([H])([H])[H])C([H])([H])[H])c1Cl


 44 48  0  0  0  0  0  0  0  0999 V2000
    0.9332  -51.2849  -19.6265 N   0  0  0  0  0  0  0  0  0  0  0  0
    0.3827  -50.9501  -18.7630 H   0  0  0  0  0  0  0  0  0  0  0  0
    0.2927  -52.2820  -20.3725 C   0  0  0  0  0  0  0  0  0  0  0  0
   -0.7459  -53.0352  -19.9716 N   0  0  0  0  0  0  0  0  0  0  0  0
   -1.3191  -53.9639  -20.7397 C   0  0  0  0  0  0  0  0  0  0  0  0
   -0.8477  -54.1863  -22.0108 C   0  0  0  0  0  0  0  0  0  0  0  0
   -1.5569  -55.3871  -23.0533 Cl  0  0  0  0  0  0  0  0  0  0  0  0
    0.2343  -53.4276  -22.4807 C   0  0  0  0  0  0  0  0  0  0  0  0
    0.7166  -52.5373  -21.6222 N   0  0  0  0  0  0  0  0  0  0  0  0
    0.6816  -53.6711  -23.7936 N   0  0  0  0  0  0  0  0  0  0  0  0
    0.3731  -54.5840  -24.2354 H   0  0  0  0  0  0  0  0  0  0  0  0
    1.4868  -52.8380  -24.5741 C   0  0  0  0  0  0  0  0  0  0  0  0
    2.6845  -52.3120  -24.1225 C   0  0  0  0  0  0  0  0  0  0  0  0
    3.4705  -51.4731  -24.9267 C   0  0  0  0  0  0  0  0  0  0  0  0
    3.0126  -51.1877  -26.1843 C   0  0  0  0  0  0  0  0  0  0  0  0
    1.8234  -51.6973  -26.6607 C   0  0  0  0  0  0  0  0  0  0  0  0
    1.0473  -52.5219  -25.8753 C   0  0  0  0  0  0  0  0  0  0  0  0
   -0.4447  -53.1805  -26.4457 S   0  0  0  0  0  0  0  0  0  0  0  0
   -1.5935  -52.8772  -25.5099 O   0  0  0  0  0  0  0  0  0  0  0  0
   -0.4170  -54.6684  -26.6557 O   0  0  0  0  0  0  0  0  0  0  0  0
   -0.9397  -52.4904  -28.0182 C   0  0  0  0  0  0  0  0  0  0  0  0
   -0.1364  -53.0358  -29.1657 C   0  0  0  0  0  0  0  0  0  0  0  0
   -2.4164  -52.4834  -28.2256 C   0  0  0  0  0  0  0  0  0  0  0  0
    3.1499  -50.6723  -18.8229 C   0  0  0  0  0  0  0  0  0  0  0  0
    4.3909  -50.1167  -19.0077 C   0  0  0  0  0  0  0  0  0  0  0  0
    4.7776  -49.5291  -20.1885 C   0  0  0  0  0  0  0  0  0  0  0  0
    3.8485  -49.5171  -21.2083 C   0  0  0  0  0  0  0  0  0  0  0  0
    2.5808  -50.0851  -21.0152 C   0  0  0  0  0  0  0  0  0  0  0  0
    2.1851  -50.6722  -19.8468 C   0  0  0  0  0  0  0  0  0  0  0  0
    6.0573  -48.9294  -20.4007 N   0  0  0  0  0  0  0  0  0  0  0  0
    7.1028  -49.7125  -21.0708 C   0  0  0  0  0  0  0  0  0  0  0  0
    8.4656  -49.4843  -20.5040 C   0  0  0  0  0  0  0  0  0  0  0  0
    8.6557  -48.1532  -19.8265 C   0  0  0  0  0  0  0  0  0  0  0  0
    7.6799  -47.1660  -20.4811 C   0  0  0  0  0  0  0  0  0  0  0  0
    6.3184  -47.5700  -19.9905 C   0  0  0  0  0  0  0  0  0  0  0  0
    7.8880  -47.2607  -21.8820 N   0  0  0  0  0  0  0  0  0  0  0  0
    6.9632  -46.5714  -22.7244 C   0  0  0  0  0  0  0  0  0  0  0  0
    7.1136  -47.1506  -24.1425 C   0  0  0  0  0  0  0  0  0  0  0  0
    8.5024  -47.3377  -24.4274 N   0  0  0  0  0  0  0  0  0  0  0  0
    8.7534  -47.1566  -25.8262 C   0  0  0  0  0  0  0  0  0  0  0  0
    9.3479  -46.4397  -23.6671 C   0  0  0  0  0  0  0  0  0  0  0  0
    9.2167  -46.6929  -22.1779 C   0  0  0  0  0  0  0  0  0  0  0  0
    3.5188  -50.9844  -16.4552 C   0  0  0  0  0  0  0  0  0  0  0  0
    2.7779  -51.2614  -17.6255 O   0  0  0  0  0  0  0  0  0  0  0  0
 43 44  1  0  0  0
 44 24  1  0  0  0
 24 25  2  0  0  0
 25 26  1  0  0  0
 26 27  2  0  0  0
 27 28  1  0  0  0
 28 29  2  0  0  0
 29  1  1  0  0  0
  1  3  1  0  0  0
  3  4  2  0  0  0
  4  5  1  0  0  0
  5  6  2  0  0  0
  6  7  1  0  0  0
  6  8  1  0  0  0
  8 10  1  0  0  0
 10 12  1  0  0  0
 12 13  2  0  0  0
 13 14  1  0  0  0
 14 15  2  0  0  0
 15 16  1  0  0  0
 16 17  2  0  0  0
 17 18  1  0  0  0
 18 19  2  0  0  0
 18 20  2  0  0  0
 18 21  1  0  0  0
 21 22  1  0  0  0
 21 23  1  0  0  0
  8  9  2  0  0  0
 26 30  1  0  0  0
 30 31  1  0  0  0
 31 32  1  0  0  0
 32 33  1  0  0  0
 33 34  1  0  0  0
 34 35  1  0  0  0
 34 36  1  0  0  0
 36 37  1  0  0  0
 37 38  1  0  0  0
 38 39  1  0  0  0
 39 40  1  0  0  0
 39 41  1  0  0  0
 41 42  1  0  0  0
 29 24  1  0  0  0
  9  3  1  0  0  0
 35 30  1  0  0  0
 42 36  1  0  0  0
 17 12  1  0  0  0
  1  2  1  0  0  0
 10 11  1  0  0  0
M  END
> <minimizedAffinity>
-7.84759

> <CNNscore>
0.1336474866

> <CNNaffinity>
7.2258272171

> <CNN_VS>
0.9657136202

> <CNNaffinity_variance>
0.3203294873

$$$$
[H]c1nc(N([H])c2c([H])c([H])c(N3C([H])([H])C([H])([H])C([H])([H])[C@@]([H])(N4C([H])([H])C([H])([H])N(C([H])([H])[H])C([H])([H])C4([H])[H])C3([H])[H])c([H])c2OC([H])([H])[H])nc(N([H])c2c([H])c([H])c([H])c([H])c2S(=O)(=O)C([H])(C([H])([H])[H])C([H])([H])[H])c1Cl


 44 48  0  0  0  0  0  0  0  0999 V2000
    1.0137  -50.8691  -19.2498 N   0  0  0  0  0  0  0  0  0  0  0  0
    0.4158  -50.4695  -18.4475 H   0  0  0  0  0  0  0  0  0  0  0  0
    0.3968  -51.8929  -19.9792 C   0  0  0  0  0  0  0  0  0  0  0  0
   -0.4962  -52.7808  -19.5093 N   0  0  0  0  0  0  0  0  0  0  0  0
   -1.0568  -53.7279  -20.2640 C   0  0  0  0  0  0  0  0  0  0  0  0
   -0.7262  -53.8276  -21.5937 C   0  0  0  0  0  0  0  0  0  0  0  0
   -1.4259  -55.0459  -22.6224 Cl  0  0  0  0  0  0  0  0  0  0  0  0
    0.2003  -52.9256  -22.1368 C   0  0  0  0  0  0  0  0  0  0  0  0
    0.6867  -52.0318  -21.2844 N   0  0  0  0  0  0  0  0  0  0  0  0
    0.5042  -53.0467  -23.5066 N   0  0  0  0  0  0  0  0  0  0  0  0
    0.1629  -53.9265  -23.9895 H   0  0  0  0  0  0  0  0  0  0  0  0
    1.2059  -52.1314  -24.2948 C   0  0  0  0  0  0  0  0  0  0  0  0
    1.9886  -51.1233  -23.7598 C   0  0  0  0  0  0  0  0  0  0  0  0
    2.6782  -50.2143  -24.5761 C   0  0  0  0  0  0  0  0  0  0  0  0
    2.5526  -50.3559  -25.9313 C   0  0  0  0  0  0  0  0  0  0  0  0
    1.7799  -51.3504  -26.4923 C   0  0  0  0  0  0  0  0  0  0  0  0
    1.1004  -52.2463  -25.6955 C   0  0  0  0  0  0  0  0  0  0  0  0
    0.1288  -53.5065  -26.3684 S   0  0  0  0  0  0  0  0  0  0  0  0
   -1.3455  -53.2830  -26.1155 O   0  0  0  0  0  0  0  0  0  0  0  0
    0.4687  -54.8796  -25.8605 O   0  0  0  0  0  0  0  0  0  0  0  0
    0.2786  -53.6099  -28.1464 C   0  0  0  0  0  0  0  0  0  0  0  0
   -0.5218  -52.5531  -28.8549 C   0  0  0  0  0  0  0  0  0  0  0  0
    1.6858  -53.7602  -28.6163 C   0  0  0  0  0  0  0  0  0  0  0  0
    2.4377  -49.1110  -20.1533 C   0  0  0  0  0  0  0  0  0  0  0  0
    3.6606  -48.5093  -20.3121 C   0  0  0  0  0  0  0  0  0  0  0  0
    4.8182  -49.0170  -19.7723 C   0  0  0  0  0  0  0  0  0  0  0  0
    4.7036  -50.1844  -19.0461 C   0  0  0  0  0  0  0  0  0  0  0  0
    3.4520  -50.7969  -18.8868 C   0  0  0  0  0  0  0  0  0  0  0  0
    2.2948  -50.3018  -19.4179 C   0  0  0  0  0  0  0  0  0  0  0  0
    6.1057  -48.4188  -19.9369 N   0  0  0  0  0  0  0  0  0  0  0  0
    6.1994  -47.1156  -20.6064 C   0  0  0  0  0  0  0  0  0  0  0  0
    7.3962  -46.9915  -21.4913 C   0  0  0  0  0  0  0  0  0  0  0  0
    8.5538  -47.8800  -21.1202 C   0  0  0  0  0  0  0  0  0  0  0  0
    8.4641  -48.1370  -19.6098 C   0  0  0  0  0  0  0  0  0  0  0  0
    7.2951  -49.0644  -19.4342 C   0  0  0  0  0  0  0  0  0  0  0  0
    8.3464  -46.8657  -18.9897 N   0  0  0  0  0  0  0  0  0  0  0  0
    8.0704  -46.8493  -17.5884 C   0  0  0  0  0  0  0  0  0  0  0  0
    7.5689  -45.4377  -17.2352 C   0  0  0  0  0  0  0  0  0  0  0  0
    8.3639  -44.4712  -17.9273 N   0  0  0  0  0  0  0  0  0  0  0  0
    8.4705  -43.2687  -17.1560 C   0  0  0  0  0  0  0  0  0  0  0  0
    9.6911  -44.9652  -18.2335 C   0  0  0  0  0  0  0  0  0  0  0  0
    9.6297  -46.1601  -19.1649 C   0  0  0  0  0  0  0  0  0  0  0  0
    1.3614  -47.8186  -21.8884 C   0  0  0  0  0  0  0  0  0  0  0  0
    1.2809  -48.5840  -20.7040 O   0  0  0  0  0  0  0  0  0  0  0  0
 43 44  1  0  0  0
 44 24  1  0  0  0
 24 25  2  0  0  0
 25 26  1  0  0  0
 26 27  2  0  0  0
 27 28  1  0  0  0
 28 29  2  0  0  0
 29  1  1  0  0  0
  1  3  1  0  0  0
  3  4  2  0  0  0
  4  5  1  0  0  0
  5  6  2  0  0  0
  6  7  1  0  0  0
  6  8  1  0  0  0
  8 10  1  0  0  0
 10 12  1  0  0  0
 12 13  2  0  0  0
 13 14  1  0  0  0
 14 15  2  0  0  0
 15 16  1  0  0  0
 16 17  2  0  0  0
 17 18  1  0  0  0
 18 19  2  0  0  0
 18 20  2  0  0  0
 18 21  1  0  0  0
 21 22  1  0  0  0
 21 23  1  0  0  0
  8  9  2  0  0  0
 26 30  1  0  0  0
 30 31  1  0  0  0
 31 32  1  0  0  0
 32 33  1  0  0  0
 33 34  1  0  0  0
 34 35  1  0  0  0
 34 36  1  0  0  0
 36 37  1  0  0  0
 37 38  1  0  0  0
 38 39  1  0  0  0
 39 40  1  0  0  0
 39 41  1  0  0  0
 41 42  1  0  0  0
 29 24  1  0  0  0
  9  3  1  0  0  0
 35 30  1  0  0  0
 42 36  1  0  0  0
 17 12  1  0  0  0
  1  2  1  0  0  0
 10 11  1  0  0  0
M  END
> <minimizedAffinity>
-7.05373

> <CNNscore>
0.0899142921

> <CNNaffinity>
6.9501943588

> <CNN_VS>
0.6249217987

> <CNNaffinity_variance>
0.1292278171

$$$$
[H]c1nc(N([H])c2c([H])c([H])c(N3C([H])([H])C([H])([H])C([H])([H])[C@@]([H])(N4C([H])([H])C([H])([H])N(C([H])([H])[H])C([H])([H])C4([H])[H])C3([H])[H])c([H])c2OC([H])([H])[H])nc(N([H])c2c([H])c([H])c([H])c([H])c2S(=O)(=O)C([H])(C([H])([H])[H])C([H])([H])[H])c1Cl


 44 48  0  0  0  0  0  0  0  0999 V2000
   -0.5528  -51.9590  -21.2721 N   0  0  0  0  0  0  0  0  0  0  0  0
   -1.5108  -52.4268  -21.1163 H   0  0  0  0  0  0  0  0  0  0  0  0
   -0.0978  -51.9948  -22.5960 C   0  0  0  0  0  0  0  0  0  0  0  0
   -0.6400  -52.6946  -23.6073 N   0  0  0  0  0  0  0  0  0  0  0  0
   -0.1617  -52.6751  -24.8530 C   0  0  0  0  0  0  0  0  0  0  0  0
    0.9401  -51.9105  -25.1507 C   0  0  0  0  0  0  0  0  0  0  0  0
    1.6063  -51.8511  -26.7583 Cl  0  0  0  0  0  0  0  0  0  0  0  0
    1.5455  -51.1592  -24.1328 C   0  0  0  0  0  0  0  0  0  0  0  0
    0.9768  -51.2633  -22.9378 N   0  0  0  0  0  0  0  0  0  0  0  0
    2.6633  -50.3747  -24.4765 N   0  0  0  0  0  0  0  0  0  0  0  0
    2.4604  -49.4214  -24.8934 H   0  0  0  0  0  0  0  0  0  0  0  0
    4.0088  -50.7190  -24.3259 C   0  0  0  0  0  0  0  0  0  0  0  0
    4.4671  -52.0211  -24.4242 C   0  0  0  0  0  0  0  0  0  0  0  0
    5.8241  -52.3386  -24.2628 C   0  0  0  0  0  0  0  0  0  0  0  0
    6.6900  -51.3115  -24.0028 C   0  0  0  0  0  0  0  0  0  0  0  0
    6.2619  -50.0050  -23.8993 C   0  0  0  0  0  0  0  0  0  0  0  0
    4.9302  -49.6871  -24.0570 C   0  0  0  0  0  0  0  0  0  0  0  0
    4.3638  -48.0591  -23.9387 S   0  0  0  0  0  0  0  0  0  0  0  0
    3.2147  -47.7879  -24.8838 O   0  0  0  0  0  0  0  0  0  0  0  0
    5.4190  -47.0226  -24.2050 O   0  0  0  0  0  0  0  0  0  0  0  0
    3.7229  -47.6746  -22.3152 C   0  0  0  0  0  0  0  0  0  0  0  0
    2.2241  -47.5621  -22.2988 C   0  0  0  0  0  0  0  0  0  0  0  0
    4.3069  -48.5159  -21.2313 C   0  0  0  0  0  0  0  0  0  0  0  0
   -0.2015  -51.9492  -18.8614 C   0  0  0  0  0  0  0  0  0  0  0  0
    0.4051  -51.4621  -17.7311 C   0  0  0  0  0  0  0  0  0  0  0  0
    1.3059  -50.4243  -17.7554 C   0  0  0  0  0  0  0  0  0  0  0  0
    1.5855  -49.8748  -18.9896 C   0  0  0  0  0  0  0  0  0  0  0  0
    0.9627  -50.3748  -20.1425 C   0  0  0  0  0  0  0  0  0  0  0  0
    0.0664  -51.4057  -20.1312 C   0  0  0  0  0  0  0  0  0  0  0  0
    1.9385  -49.8883  -16.5913 N   0  0  0  0  0  0  0  0  0  0  0  0
    3.3324  -50.2547  -16.3120 C   0  0  0  0  0  0  0  0  0  0  0  0
    3.6100  -50.4548  -14.8582 C   0  0  0  0  0  0  0  0  0  0  0  0
    2.6882  -49.7109  -13.9286 C   0  0  0  0  0  0  0  0  0  0  0  0
    2.1938  -48.4662  -14.6779 C   0  0  0  0  0  0  0  0  0  0  0  0
    1.2360  -48.9818  -15.7144 C   0  0  0  0  0  0  0  0  0  0  0  0
    3.3492  -47.8073  -15.1737 N   0  0  0  0  0  0  0  0  0  0  0  0
    3.1409  -46.7325  -16.0910 C   0  0  0  0  0  0  0  0  0  0  0  0
    4.4798  -46.4706  -16.8036 C   0  0  0  0  0  0  0  0  0  0  0  0
    5.5410  -46.5407  -15.8477 N   0  0  0  0  0  0  0  0  0  0  0  0
    6.6029  -45.6521  -16.2153 C   0  0  0  0  0  0  0  0  0  0  0  0
    5.0959  -46.2283  -14.5047 C   0  0  0  0  0  0  0  0  0  0  0  0
    4.0670  -47.2316  -14.0210 C   0  0  0  0  0  0  0  0  0  0  0  0
   -1.9425  -53.1466  -17.6892 C   0  0  0  0  0  0  0  0  0  0  0  0
   -1.1066  -52.9970  -18.8178 O   0  0  0  0  0  0  0  0  0  0  0  0
 43 44  1  0  0  0
 44 24  1  0  0  0
 24 25  2  0  0  0
 25 26  1  0  0  0
 26 27  2  0  0  0
 27 28  1  0  0  0
 28 29  2  0  0  0
 29  1  1  0  0  0
  1  3  1  0  0  0
  3  4  2  0  0  0
  4  5  1  0  0  0
  5  6  2  0  0  0
  6  7  1  0  0  0
  6  8  1  0  0  0
  8 10  1  0  0  0
 10 12  1  0  0  0
 12 13  2  0  0  0
 13 14  1  0  0  0
 14 15  2  0  0  0
 15 16  1  0  0  0
 16 17  2  0  0  0
 17 18  1  0  0  0
 18 19  2  0  0  0
 18 20  2  0  0  0
 18 21  1  0  0  0
 21 22  1  0  0  0
 21 23  1  0  0  0
  8  9  2  0  0  0
 26 30  1  0  0  0
 30 31  1  0  0  0
 31 32  1  0  0  0
 32 33  1  0  0  0
 33 34  1  0  0  0
 34 35  1  0  0  0
 34 36  1  0  0  0
 36 37  1  0  0  0
 37 38  1  0  0  0
 38 39  1  0  0  0
 39 40  1  0  0  0
 39 41  1  0  0  0
 41 42  1  0  0  0
 29 24  1  0  0  0
  9  3  1  0  0  0
 35 30  1  0  0  0
 42 36  1  0  0  0
 17 12  1  0  0  0
  1  2  1  0  0  0
 10 11  1  0  0  0
M  END
> <minimizedAffinity>
-6.43368

> <CNNscore>
0.0855366141

> <CNNaffinity>
7.0481719971

> <CNN_VS>
0.6028767824

> <CNNaffinity_variance>
0.1453820467

$$$$
[H]c1nc(N([H])c2c([H])c([H])c(N3C([H])([H])C([H])([H])C([H])([H])[C@@]([H])(N4C([H])([H])C([H])([H])N(C([H])([H])[H])C([H])([H])C4([H])[H])C3([H])[H])c([H])c2OC([H])([H])[H])nc(N([H])c2c([H])c([H])c([H])c([H])c2S(=O)(=O)C([H])(C([H])([H])[H])C([H])([H])[H])c1Cl


 44 48  0  0  0  0  0  0  0  0999 V2000
    0.3524  -50.9493  -19.6764 N   0  0  0  0  0  0  0  0  0  0  0  0
   -0.0616  -50.8248  -18.6895 H   0  0  0  0  0  0  0  0  0  0  0  0
   -0.1472  -52.0517  -20.3807 C   0  0  0  0  0  0  0  0  0  0  0  0
   -1.0272  -52.9587  -19.9230 N   0  0  0  0  0  0  0  0  0  0  0  0
   -1.4728  -53.9830  -20.6533 C   0  0  0  0  0  0  0  0  0  0  0  0
   -1.0293  -54.1473  -21.9431 C   0  0  0  0  0  0  0  0  0  0  0  0
   -1.5763  -55.4672  -22.9383 Cl  0  0  0  0  0  0  0  0  0  0  0  0
   -0.1107  -53.2289  -22.4719 C   0  0  0  0  0  0  0  0  0  0  0  0
    0.2559  -52.2558  -21.6467 N   0  0  0  0  0  0  0  0  0  0  0  0
    0.3106  -53.4186  -23.8022 N   0  0  0  0  0  0  0  0  0  0  0  0
   -0.3531  -53.9492  -24.4361 H   0  0  0  0  0  0  0  0  0  0  0  0
    1.5081  -52.9819  -24.3739 C   0  0  0  0  0  0  0  0  0  0  0  0
    2.5090  -52.3655  -23.6436 C   0  0  0  0  0  0  0  0  0  0  0  0
    3.6997  -51.9320  -24.2454 C   0  0  0  0  0  0  0  0  0  0  0  0
    3.8435  -52.1391  -25.5904 C   0  0  0  0  0  0  0  0  0  0  0  0
    2.8633  -52.7503  -26.3432 C   0  0  0  0  0  0  0  0  0  0  0  0
    1.6917  -53.1784  -25.7573 C   0  0  0  0  0  0  0  0  0  0  0  0
    0.4473  -53.9523  -26.6726 S   0  0  0  0  0  0  0  0  0  0  0  0
   -0.2814  -55.0029  -25.8649 O   0  0  0  0  0  0  0  0  0  0  0  0
    0.9337  -54.6115  -27.9326 O   0  0  0  0  0  0  0  0  0  0  0  0
   -0.8254  -52.8122  -27.1968 C   0  0  0  0  0  0  0  0  0  0  0  0
   -0.9286  -51.6109  -26.2992 C   0  0  0  0  0  0  0  0  0  0  0  0
   -0.7886  -52.5109  -28.6567 C   0  0  0  0  0  0  0  0  0  0  0  0
    2.6468  -50.1308  -19.6477 C   0  0  0  0  0  0  0  0  0  0  0  0
    3.6185  -49.2453  -20.0410 C   0  0  0  0  0  0  0  0  0  0  0  0
    3.3654  -48.1792  -20.8708 C   0  0  0  0  0  0  0  0  0  0  0  0
    2.0648  -48.0268  -21.3052 C   0  0  0  0  0  0  0  0  0  0  0  0
    1.0744  -48.9334  -20.9002 C   0  0  0  0  0  0  0  0  0  0  0  0
    1.3136  -49.9968  -20.0765 C   0  0  0  0  0  0  0  0  0  0  0  0
    4.3556  -47.2341  -21.2814 N   0  0  0  0  0  0  0  0  0  0  0  0
    5.7216  -47.3699  -20.7609 C   0  0  0  0  0  0  0  0  0  0  0  0
    6.3724  -46.0592  -20.4624 C   0  0  0  0  0  0  0  0  0  0  0  0
    5.8386  -44.8924  -21.2503 C   0  0  0  0  0  0  0  0  0  0  0  0
    5.2964  -45.4474  -22.5744 C   0  0  0  0  0  0  0  0  0  0  0  0
    4.0342  -46.1773  -22.2111 C   0  0  0  0  0  0  0  0  0  0  0  0
    6.3321  -46.2398  -23.1350 N   0  0  0  0  0  0  0  0  0  0  0  0
    5.9981  -47.0346  -24.2738 C   0  0  0  0  0  0  0  0  0  0  0  0
    7.1012  -48.0961  -24.4328 C   0  0  0  0  0  0  0  0  0  0  0  0
    8.3742  -47.4875  -24.2004 N   0  0  0  0  0  0  0  0  0  0  0  0
    9.3838  -48.1252  -24.9919 C   0  0  0  0  0  0  0  0  0  0  0  0
    8.3670  -46.0667  -24.4843 C   0  0  0  0  0  0  0  0  0  0  0  0
    7.4085  -45.3299  -23.5692 C   0  0  0  0  0  0  0  0  0  0  0  0
    3.2830  -50.9575  -17.4680 C   0  0  0  0  0  0  0  0  0  0  0  0
    2.9207  -51.2007  -18.8114 O   0  0  0  0  0  0  0  0  0  0  0  0
 43 44  1  0  0  0
 44 24  1  0  0  0
 24 25  2  0  0  0
 25 26  1  0  0  0
 26 27  2  0  0  0
 27 28  1  0  0  0
 28 29  2  0  0  0
 29  1  1  0  0  0
  1  3  1  0  0  0
  3  4  2  0  0  0
  4  5  1  0  0  0
  5  6  2  0  0  0
  6  7  1  0  0  0
  6  8  1  0  0  0
  8 10  1  0  0  0
 10 12  1  0  0  0
 12 13  2  0  0  0
 13 14  1  0  0  0
 14 15  2  0  0  0
 15 16  1  0  0  0
 16 17  2  0  0  0
 17 18  1  0  0  0
 18 19  2  0  0  0
 18 20  2  0  0  0
 18 21  1  0  0  0
 21 22  1  0  0  0
 21 23  1  0  0  0
  8  9  2  0  0  0
 26 30  1  0  0  0
 30 31  1  0  0  0
 31 32  1  0  0  0
 32 33  1  0  0  0
 33 34  1  0  0  0
 34 35  1  0  0  0
 34 36  1  0  0  0
 36 37  1  0  0  0
 37 38  1  0  0  0
 38 39  1  0  0  0
 39 40  1  0  0  0
 39 41  1  0  0  0
 41 42  1  0  0  0
 29 24  1  0  0  0
  9  3  1  0  0  0
 35 30  1  0  0  0
 42 36  1  0  0  0
 17 12  1  0  0  0
  1  2  1  0  0  0
 10 11  1  0  0  0
M  END
> <minimizedAffinity>
-8.19843

> <CNNscore>
0.0846750364

> <CNNaffinity>
7.0497055054

> <CNN_VS>
0.5969340801

> <CNNaffinity_variance>
0.4706224501

$$$$
[H]c1nc(N([H])c2c([H])c([H])c(N3C([H])([H])C([H])([H])C([H])(N4C([H])([H])C([H])([H])N(C([H])([H])[H])C([H])([H])C4([H])[H])C([H])([H])C3([H])[H])c([H])c2OC([H])([H])[H])nc(N([H])c2c([H])c([H])c([H])c([H])c2S(=O)(=O)C([H])(C([H])([H])[H])C([H])([H])[H])c1Cl


 44 48  0  0  0  0  0  0  0  0999 V2000
    0.6713  -53.3789  -23.5697 N   0  0  0  0  0  0  0  0  0  0  0  0
    0.3585  -54.2036  -24.1969 H   0  0  0  0  0  0  0  0  0  0  0  0
    0.1174  -53.3420  -22.2627 C   0  0  0  0  0  0  0  0  0  0  0  0
   -0.7664  -54.2052  -21.7556 N   0  0  0  0  0  0  0  0  0  0  0  0
   -1.2484  -54.1123  -20.5100 C   0  0  0  0  0  0  0  0  0  0  0  0
   -0.8326  -53.0903  -19.6891 C   0  0  0  0  0  0  0  0  0  0  0  0
   -1.4554  -52.9522  -18.0479 Cl  0  0  0  0  0  0  0  0  0  0  0  0
    0.1006  -52.1650  -20.2006 C   0  0  0  0  0  0  0  0  0  0  0  0
    0.5213  -52.3430  -21.4545 N   0  0  0  0  0  0  0  0  0  0  0  0
    0.5099  -51.1331  -19.3421 N   0  0  0  0  0  0  0  0  0  0  0  0
    0.2281  -51.2720  -18.3163 H   0  0  0  0  0  0  0  0  0  0  0  0
    1.2234  -49.9492  -19.5824 C   0  0  0  0  0  0  0  0  0  0  0  0
    1.0287  -49.2523  -20.7561 C   0  0  0  0  0  0  0  0  0  0  0  0
    1.7346  -48.0697  -21.0117 C   0  0  0  0  0  0  0  0  0  0  0  0
    2.6207  -47.6137  -20.0823 C   0  0  0  0  0  0  0  0  0  0  0  0
    2.8129  -48.3115  -18.9114 C   0  0  0  0  0  0  0  0  0  0  0  0
    2.1359  -49.4707  -18.6356 C   0  0  0  0  0  0  0  0  0  0  0  0
    2.3859  -50.3276  -17.1716 S   0  0  0  0  0  0  0  0  0  0  0  0
    3.4818  -51.3473  -17.3545 O   0  0  0  0  0  0  0  0  0  0  0  0
    1.1728  -51.0448  -16.6489 O   0  0  0  0  0  0  0  0  0  0  0  0
    2.9291  -49.2687  -15.8442 C   0  0  0  0  0  0  0  0  0  0  0  0
    1.8235  -48.3701  -15.3940 C   0  0  0  0  0  0  0  0  0  0  0  0
    3.6449  -49.9980  -14.7566 C   0  0  0  0  0  0  0  0  0  0  0  0
    1.0664  -51.5785  -25.1106 C   0  0  0  0  0  0  0  0  0  0  0  0
    1.8899  -50.6657  -25.7437 C   0  0  0  0  0  0  0  0  0  0  0  0
    3.2402  -50.6011  -25.4811 C   0  0  0  0  0  0  0  0  0  0  0  0
    3.7230  -51.4937  -24.5552 C   0  0  0  0  0  0  0  0  0  0  0  0
    2.9185  -52.4293  -23.8972 C   0  0  0  0  0  0  0  0  0  0  0  0
    1.5736  -52.4889  -24.1631 C   0  0  0  0  0  0  0  0  0  0  0  0
    4.0779  -49.6464  -26.1386 N   0  0  0  0  0  0  0  0  0  0  0  0
    5.1107  -49.0211  -25.3859 C   0  0  0  0  0  0  0  0  0  0  0  0
    6.1681  -48.3099  -26.1826 C   0  0  0  0  0  0  0  0  0  0  0  0
    5.6435  -47.5037  -27.3228 C   0  0  0  0  0  0  0  0  0  0  0  0
    4.2148  -47.8539  -27.6877 C   0  0  0  0  0  0  0  0  0  0  0  0
    3.8990  -49.3024  -27.5288 C   0  0  0  0  0  0  0  0  0  0  0  0
    6.4199  -47.4541  -28.4969 N   0  0  0  0  0  0  0  0  0  0  0  0
    7.5589  -48.2663  -28.6072 C   0  0  0  0  0  0  0  0  0  0  0  0
    8.4333  -47.7702  -29.7623 C   0  0  0  0  0  0  0  0  0  0  0  0
    7.5628  -47.4944  -30.8886 N   0  0  0  0  0  0  0  0  0  0  0  0
    7.0164  -48.6599  -31.5070 C   0  0  0  0  0  0  0  0  0  0  0  0
    6.6393  -46.4342  -30.6428 C   0  0  0  0  0  0  0  0  0  0  0  0
    6.5566  -46.1858  -29.1381 C   0  0  0  0  0  0  0  0  0  0  0  0
   -0.6949  -52.1331  -26.6558 C   0  0  0  0  0  0  0  0  0  0  0  0
   -0.2843  -51.5890  -25.4224 O   0  0  0  0  0  0  0  0  0  0  0  0
 43 44  1  0  0  0
 44 24  1  0  0  0
 24 25  2  0  0  0
 25 26  1  0  0  0
 26 27  2  0  0  0
 27 28  1  0  0  0
 28 29  2  0  0  0
 29  1  1  0  0  0
  1  3  1  0  0  0
  3  4  2  0  0  0
  4  5  1  0  0  0
  5  6  2  0  0  0
  6  7  1  0  0  0
  6  8  1  0  0  0
  8 10  1  0  0  0
 10 12  1  0  0  0
 12 13  2  0  0  0
 13 14  1  0  0  0
 14 15  2  0  0  0
 15 16  1  0  0  0
 16 17  2  0  0  0
 17 18  1  0  0  0
 18 19  2  0  0  0
 18 20  2  0  0  0
 18 21  1  0  0  0
 21 22  1  0  0  0
 21 23  1  0  0  0
  8  9  2  0  0  0
 26 30  1  0  0  0
 30 31  1  0  0  0
 31 32  1  0  0  0
 32 33  1  0  0  0
 33 34  1  0  0  0
 34 35  1  0  0  0
 33 36  1  0  0  0
 36 37  1  0  0  0
 37 38  1  0  0  0
 38 39  1  0  0  0
 39 40  1  0  0  0
 39 41  1  0  0  0
 41 42  1  0  0  0
 29 24  1  0  0  0
  9  3  1  0  0  0
 35 30  1  0  0  0
 42 36  1  0  0  0
 17 12  1  0  0  0
  1  2  1  0  0  0
 10 11  1  0  0  0
M  END
> <minimizedAffinity>
-7.34397

> <CNNscore>
0.3346714377

> <CNNaffinity>
7.4170255661

> <CNN_VS>
2.4822666645

> <CNNaffinity_variance>
0.1441893280

$$$$
[H]c1nc(N([H])c2c([H])c([H])c(N3C([H])([H])C([H])([H])C([H])(N4C([H])([H])C([H])([H])N(C([H])([H])[H])C([H])([H])C4([H])[H])C([H])([H])C3([H])[H])c([H])c2OC([H])([H])[H])nc(N([H])c2c([H])c([H])c([H])c([H])c2S(=O)(=O)C([H])(C([H])([H])[H])C([H])([H])[H])c1Cl


 44 48  0  0  0  0  0  0  0  0999 V2000
    0.5044  -50.9197  -19.4625 N   0  0  0  0  0  0  0  0  0  0  0  0
    0.0939  -50.8243  -18.4657 H   0  0  0  0  0  0  0  0  0  0  0  0
    0.0144  -52.0025  -20.2397 C   0  0  0  0  0  0  0  0  0  0  0  0
   -0.7986  -52.9735  -19.8160 N   0  0  0  0  0  0  0  0  0  0  0  0
   -1.2249  -53.9675  -20.6051 C   0  0  0  0  0  0  0  0  0  0  0  0
   -0.8240  -54.0184  -21.9196 C   0  0  0  0  0  0  0  0  0  0  0  0
   -1.3746  -55.3180  -22.9725 Cl  0  0  0  0  0  0  0  0  0  0  0  0
    0.0349  -53.0046  -22.3921 C   0  0  0  0  0  0  0  0  0  0  0  0
    0.4041  -52.0572  -21.5278 N   0  0  0  0  0  0  0  0  0  0  0  0
    0.4275  -53.0788  -23.7374 N   0  0  0  0  0  0  0  0  0  0  0  0
   -0.3562  -53.3630  -24.4127 H   0  0  0  0  0  0  0  0  0  0  0  0
    1.6625  -52.8475  -24.3616 C   0  0  0  0  0  0  0  0  0  0  0  0
    2.7287  -52.3732  -23.6272 C   0  0  0  0  0  0  0  0  0  0  0  0
    3.9677  -52.1355  -24.2360 C   0  0  0  0  0  0  0  0  0  0  0  0
    4.1078  -52.3796  -25.5692 C   0  0  0  0  0  0  0  0  0  0  0  0
    3.0416  -52.8533  -26.2998 C   0  0  0  0  0  0  0  0  0  0  0  0
    1.8189  -53.0947  -25.7300 C   0  0  0  0  0  0  0  0  0  0  0  0
    0.5009  -53.6859  -26.6538 S   0  0  0  0  0  0  0  0  0  0  0  0
   -0.3683  -54.5732  -25.7985 O   0  0  0  0  0  0  0  0  0  0  0  0
    0.8919  -54.4667  -27.8773 O   0  0  0  0  0  0  0  0  0  0  0  0
   -0.5661  -52.3813  -27.2350 C   0  0  0  0  0  0  0  0  0  0  0  0
   -0.8831  -52.5593  -28.6843 C   0  0  0  0  0  0  0  0  0  0  0  0
   -1.7405  -52.1340  -26.3481 C   0  0  0  0  0  0  0  0  0  0  0  0
    2.7550  -50.0957  -19.2953 C   0  0  0  0  0  0  0  0  0  0  0  0
    3.7510  -49.1829  -19.5903 C   0  0  0  0  0  0  0  0  0  0  0  0
    3.5207  -48.0923  -20.3990 C   0  0  0  0  0  0  0  0  0  0  0  0
    2.2467  -47.9622  -20.8961 C   0  0  0  0  0  0  0  0  0  0  0  0
    1.2167  -48.8661  -20.6176 C   0  0  0  0  0  0  0  0  0  0  0  0
    1.4522  -49.9510  -19.8110 C   0  0  0  0  0  0  0  0  0  0  0  0
    4.5630  -47.1608  -20.7012 N   0  0  0  0  0  0  0  0  0  0  0  0
    4.3029  -45.7735  -20.5228 C   0  0  0  0  0  0  0  0  0  0  0  0
    5.5069  -44.8741  -20.5091 C   0  0  0  0  0  0  0  0  0  0  0  0
    6.5283  -45.1947  -21.5478 C   0  0  0  0  0  0  0  0  0  0  0  0
    6.3430  -46.5708  -22.1555 C   0  0  0  0  0  0  0  0  0  0  0  0
    5.8545  -47.5893  -21.1822 C   0  0  0  0  0  0  0  0  0  0  0  0
    7.8831  -45.0217  -21.2041 N   0  0  0  0  0  0  0  0  0  0  0  0
    8.2844  -43.8507  -20.5430 C   0  0  0  0  0  0  0  0  0  0  0  0
    9.8073  -43.7118  -20.6236 C   0  0  0  0  0  0  0  0  0  0  0  0
   10.3855  -45.0085  -20.3287 N   0  0  0  0  0  0  0  0  0  0  0  0
   10.2696  -45.4053  -18.9618 C   0  0  0  0  0  0  0  0  0  0  0  0
   10.0542  -46.0074  -21.2928 C   0  0  0  0  0  0  0  0  0  0  0  0
    8.8593  -45.5285  -22.1145 C   0  0  0  0  0  0  0  0  0  0  0  0
    3.5205  -50.9220  -17.1672 C   0  0  0  0  0  0  0  0  0  0  0  0
    3.0558  -51.1713  -18.4741 O   0  0  0  0  0  0  0  0  0  0  0  0
 43 44  1  0  0  0
 44 24  1  0  0  0
 24 25  2  0  0  0
 25 26  1  0  0  0
 26 27  2  0  0  0
 27 28  1  0  0  0
 28 29  2  0  0  0
 29  1  1  0  0  0
  1  3  1  0  0  0
  3  4  2  0  0  0
  4  5  1  0  0  0
  5  6  2  0  0  0
  6  7  1  0  0  0
  6  8  1  0  0  0
  8 10  1  0  0  0
 10 12  1  0  0  0
 12 13  2  0  0  0
 13 14  1  0  0  0
 14 15  2  0  0  0
 15 16  1  0  0  0
 16 17  2  0  0  0
 17 18  1  0  0  0
 18 19  2  0  0  0
 18 20  2  0  0  0
 18 21  1  0  0  0
 21 22  1  0  0  0
 21 23  1  0  0  0
  8  9  2  0  0  0
 26 30  1  0  0  0
 30 31  1  0  0  0
 31 32  1  0  0  0
 32 33  1  0  0  0
 33 34  1  0  0  0
 34 35  1  0  0  0
 33 36  1  0  0  0
 36 37  1  0  0  0
 37 38  1  0  0  0
 38 39  1  0  0  0
 39 40  1  0  0  0
 39 41  1  0  0  0
 41 42  1  0  0  0
 29 24  1  0  0  0
  9  3  1  0  0  0
 35 30  1  0  0  0
 42 36  1  0  0  0
 17 12  1  0  0  0
  1  2  1  0  0  0
 10 11  1  0  0  0
M  END
> <minimizedAffinity>
-8.10389

> <CNNscore>
0.2143548280

> <CNNaffinity>
7.2334494591

> <CNN_VS>
1.5505248308

> <CNNaffinity_variance>
0.1578881443

$$$$
[H]c1nc(N([H])c2c([H])c([H])c(N3C([H])([H])C([H])([H])C([H])(N4C([H])([H])C([H])([H])N(C([H])([H])[H])C([H])([H])C4([H])[H])C([H])([H])C3([H])[H])c([H])c2OC([H])([H])[H])nc(N([H])c2c([H])c([H])c([H])c([H])c2S(=O)(=O)C([H])(C([H])([H])[H])C([H])([H])[H])c1Cl


 44 48  0  0  0  0  0  0  0  0999 V2000
    0.5526  -51.2027  -19.5621 N   0  0  0  0  0  0  0  0  0  0  0  0
    0.2571  -51.2372  -18.5216 H   0  0  0  0  0  0  0  0  0  0  0  0
    0.0431  -52.2365  -20.3916 C   0  0  0  0  0  0  0  0  0  0  0  0
   -0.9385  -53.0865  -20.0800 N   0  0  0  0  0  0  0  0  0  0  0  0
   -1.3726  -54.0404  -20.9132 C   0  0  0  0  0  0  0  0  0  0  0  0
   -0.8002  -54.1766  -22.1562 C   0  0  0  0  0  0  0  0  0  0  0  0
   -1.3582  -55.4253  -23.2653 Cl  0  0  0  0  0  0  0  0  0  0  0  0
    0.2388  -53.2912  -22.5099 C   0  0  0  0  0  0  0  0  0  0  0  0
    0.6002  -52.3742  -21.6102 N   0  0  0  0  0  0  0  0  0  0  0  0
    0.8043  -53.4502  -23.7844 N   0  0  0  0  0  0  0  0  0  0  0  0
    0.6796  -54.4289  -24.2056 H   0  0  0  0  0  0  0  0  0  0  0  0
    1.5050  -52.5586  -24.6105 C   0  0  0  0  0  0  0  0  0  0  0  0
    2.6343  -51.9233  -24.1389 C   0  0  0  0  0  0  0  0  0  0  0  0
    3.3439  -51.0290  -24.9507 C   0  0  0  0  0  0  0  0  0  0  0  0
    2.9030  -50.7929  -26.2182 C   0  0  0  0  0  0  0  0  0  0  0  0
    1.7754  -51.4288  -26.6863 C   0  0  0  0  0  0  0  0  0  0  0  0
    1.0624  -52.3081  -25.9141 C   0  0  0  0  0  0  0  0  0  0  0  0
   -0.3397  -53.0930  -26.5125 S   0  0  0  0  0  0  0  0  0  0  0  0
   -1.5026  -52.8442  -25.5851 O   0  0  0  0  0  0  0  0  0  0  0  0
   -0.2007  -54.5795  -26.6874 O   0  0  0  0  0  0  0  0  0  0  0  0
   -0.8480  -52.4660  -28.1021 C   0  0  0  0  0  0  0  0  0  0  0  0
   -0.0258  -53.0635  -29.1974 C   0  0  0  0  0  0  0  0  0  0  0  0
   -2.3246  -52.5083  -28.3136 C   0  0  0  0  0  0  0  0  0  0  0  0
    2.6983  -50.1367  -19.3841 C   0  0  0  0  0  0  0  0  0  0  0  0
    3.5901  -49.1208  -19.6757 C   0  0  0  0  0  0  0  0  0  0  0  0
    3.2465  -48.0636  -20.4885 C   0  0  0  0  0  0  0  0  0  0  0  0
    1.9689  -48.0747  -20.9932 C   0  0  0  0  0  0  0  0  0  0  0  0
    1.0426  -49.0856  -20.7183 C   0  0  0  0  0  0  0  0  0  0  0  0
    1.3907  -50.1366  -19.9076 C   0  0  0  0  0  0  0  0  0  0  0  0
    4.1823  -47.0240  -20.7870 N   0  0  0  0  0  0  0  0  0  0  0  0
    5.4453  -47.0425  -20.1322 C   0  0  0  0  0  0  0  0  0  0  0  0
    6.5073  -46.1595  -20.7248 C   0  0  0  0  0  0  0  0  0  0  0  0
    6.0286  -44.8065  -21.1315 C   0  0  0  0  0  0  0  0  0  0  0  0
    4.5185  -44.7158  -21.2237 C   0  0  0  0  0  0  0  0  0  0  0  0
    3.8773  -45.9667  -21.7209 C   0  0  0  0  0  0  0  0  0  0  0  0
    6.5957  -44.2353  -22.2872 N   0  0  0  0  0  0  0  0  0  0  0  0
    7.9780  -44.3423  -22.5041 C   0  0  0  0  0  0  0  0  0  0  0  0
    8.4077  -43.3419  -23.5809 C   0  0  0  0  0  0  0  0  0  0  0  0
    7.4430  -43.4138  -24.6611 N   0  0  0  0  0  0  0  0  0  0  0  0
    7.5132  -44.6143  -25.4313 C   0  0  0  0  0  0  0  0  0  0  0  0
    6.1318  -43.0017  -24.2763 C   0  0  0  0  0  0  0  0  0  0  0  0
    6.0365  -43.0066  -22.7520 C   0  0  0  0  0  0  0  0  0  0  0  0
    3.5384  -50.8700  -17.2500 C   0  0  0  0  0  0  0  0  0  0  0  0
    3.1103  -51.1713  -18.5584 O   0  0  0  0  0  0  0  0  0  0  0  0
 43 44  1  0  0  0
 44 24  1  0  0  0
 24 25  2  0  0  0
 25 26  1  0  0  0
 26 27  2  0  0  0
 27 28  1  0  0  0
 28 29  2  0  0  0
 29  1  1  0  0  0
  1  3  1  0  0  0
  3  4  2  0  0  0
  4  5  1  0  0  0
  5  6  2  0  0  0
  6  7  1  0  0  0
  6  8  1  0  0  0
  8 10  1  0  0  0
 10 12  1  0  0  0
 12 13  2  0  0  0
 13 14  1  0  0  0
 14 15  2  0  0  0
 15 16  1  0  0  0
 16 17  2  0  0  0
 17 18  1  0  0  0
 18 19  2  0  0  0
 18 20  2  0  0  0
 18 21  1  0  0  0
 21 22  1  0  0  0
 21 23  1  0  0  0
  8  9  2  0  0  0
 26 30  1  0  0  0
 30 31  1  0  0  0
 31 32  1  0  0  0
 32 33  1  0  0  0
 33 34  1  0  0  0
 34 35  1  0  0  0
 33 36  1  0  0  0
 36 37  1  0  0  0
 37 38  1  0  0  0
 38 39  1  0  0  0
 39 40  1  0  0  0
 39 41  1  0  0  0
 41 42  1  0  0  0
 29 24  1  0  0  0
  9  3  1  0  0  0
 35 30  1  0  0  0
 42 36  1  0  0  0
 17 12  1  0  0  0
  1  2  1  0  0  0
 10 11  1  0  0  0
M  END
> <minimizedAffinity>
-7.87472

> <CNNscore>
0.2083857507

> <CNNaffinity>
7.2154741287

> <CNN_VS>
1.5036020279

> <CNNaffinity_variance>
0.2118999958

$$$$
[H]c1nc(N([H])c2c([H])c([H])c(N3C([H])([H])C([H])([H])C([H])(N4C([H])([H])C([H])([H])N(C([H])([H])[H])C([H])([H])C4([H])[H])C([H])([H])C3([H])[H])c([H])c2OC([H])([H])[H])nc(N([H])c2c([H])c([H])c([H])c([H])c2S(=O)(=O)C([H])(C([H])([H])[H])C([H])([H])[H])c1Cl


 44 48  0  0  0  0  0  0  0  0999 V2000
   -0.7018  -53.3848  -18.4576 N   0  0  0  0  0  0  0  0  0  0  0  0
   -0.5073  -54.4477  -18.3980 H   0  0  0  0  0  0  0  0  0  0  0  0
   -1.5862  -52.8549  -17.4810 C   0  0  0  0  0  0  0  0  0  0  0  0
   -2.8788  -53.1589  -17.3393 N   0  0  0  0  0  0  0  0  0  0  0  0
   -3.6575  -52.6212  -16.3922 C   0  0  0  0  0  0  0  0  0  0  0  0
   -3.1302  -51.7094  -15.5080 C   0  0  0  0  0  0  0  0  0  0  0  0
   -4.1391  -50.9921  -14.2557 Cl  0  0  0  0  0  0  0  0  0  0  0  0
   -1.7671  -51.3712  -15.6362 C   0  0  0  0  0  0  0  0  0  0  0  0
   -1.0748  -51.9615  -16.6125 N   0  0  0  0  0  0  0  0  0  0  0  0
   -1.2535  -50.4401  -14.7204 N   0  0  0  0  0  0  0  0  0  0  0  0
   -0.8718  -50.8725  -13.8158 H   0  0  0  0  0  0  0  0  0  0  0  0
   -1.1478  -49.0421  -14.7734 C   0  0  0  0  0  0  0  0  0  0  0  0
   -2.2712  -48.2730  -14.9914 C   0  0  0  0  0  0  0  0  0  0  0  0
   -2.1820  -46.8762  -15.0488 C   0  0  0  0  0  0  0  0  0  0  0  0
   -0.9660  -46.2833  -14.8860 C   0  0  0  0  0  0  0  0  0  0  0  0
    0.1538  -47.0538  -14.6683 C   0  0  0  0  0  0  0  0  0  0  0  0
    0.0953  -48.4216  -14.6074 C   0  0  0  0  0  0  0  0  0  0  0  0
    1.4995  -49.3671  -14.3343 S   0  0  0  0  0  0  0  0  0  0  0  0
    1.1925  -50.4704  -13.3531 O   0  0  0  0  0  0  0  0  0  0  0  0
    2.6806  -48.6000  -13.8091 O   0  0  0  0  0  0  0  0  0  0  0  0
    2.0727  -50.1822  -15.8125 C   0  0  0  0  0  0  0  0  0  0  0  0
    1.9647  -49.2760  -16.9957 C   0  0  0  0  0  0  0  0  0  0  0  0
    3.3907  -50.8614  -15.6441 C   0  0  0  0  0  0  0  0  0  0  0  0
   -0.2265  -53.1981  -20.8053 C   0  0  0  0  0  0  0  0  0  0  0  0
    0.3896  -52.5957  -21.8868 C   0  0  0  0  0  0  0  0  0  0  0  0
    1.2105  -51.5001  -21.7379 C   0  0  0  0  0  0  0  0  0  0  0  0
    1.3828  -51.0393  -20.4553 C   0  0  0  0  0  0  0  0  0  0  0  0
    0.7753  -51.6246  -19.3400 C   0  0  0  0  0  0  0  0  0  0  0  0
   -0.0416  -52.7163  -19.4947 C   0  0  0  0  0  0  0  0  0  0  0  0
    1.8348  -50.8833  -22.8672 N   0  0  0  0  0  0  0  0  0  0  0  0
    1.6152  -51.4488  -24.1541 C   0  0  0  0  0  0  0  0  0  0  0  0
    1.9872  -50.5841  -25.3257 C   0  0  0  0  0  0  0  0  0  0  0  0
    3.2802  -49.8570  -25.1698 C   0  0  0  0  0  0  0  0  0  0  0  0
    3.7736  -49.8267  -23.7371 C   0  0  0  0  0  0  0  0  0  0  0  0
    2.6766  -49.7186  -22.7331 C   0  0  0  0  0  0  0  0  0  0  0  0
    3.3684  -48.5612  -25.7147 N   0  0  0  0  0  0  0  0  0  0  0  0
    3.5259  -48.4032  -27.1002 C   0  0  0  0  0  0  0  0  0  0  0  0
    3.9800  -46.9729  -27.4054 C   0  0  0  0  0  0  0  0  0  0  0  0
    3.1711  -46.0726  -26.6069 N   0  0  0  0  0  0  0  0  0  0  0  0
    1.8119  -45.9709  -27.0331 C   0  0  0  0  0  0  0  0  0  0  0  0
    3.3684  -46.2308  -25.2022 C   0  0  0  0  0  0  0  0  0  0  0  0
    4.0515  -47.5722  -24.9442 C   0  0  0  0  0  0  0  0  0  0  0  0
   -1.1242  -54.8331  -22.3280 C   0  0  0  0  0  0  0  0  0  0  0  0
   -1.0405  -54.2982  -21.0268 O   0  0  0  0  0  0  0  0  0  0  0  0
 43 44  1  0  0  0
 44 24  1  0  0  0
 24 25  2  0  0  0
 25 26  1  0  0  0
 26 27  2  0  0  0
 27 28  1  0  0  0
 28 29  2  0  0  0
 29  1  1  0  0  0
  1  3  1  0  0  0
  3  4  2  0  0  0
  4  5  1  0  0  0
  5  6  2  0  0  0
  6  7  1  0  0  0
  6  8  1  0  0  0
  8 10  1  0  0  0
 10 12  1  0  0  0
 12 13  2  0  0  0
 13 14  1  0  0  0
 14 15  2  0  0  0
 15 16  1  0  0  0
 16 17  2  0  0  0
 17 18  1  0  0  0
 18 19  2  0  0  0
 18 20  2  0  0  0
 18 21  1  0  0  0
 21 22  1  0  0  0
 21 23  1  0  0  0
  8  9  2  0  0  0
 26 30  1  0  0  0
 30 31  1  0  0  0
 31 32  1  0  0  0
 32 33  1  0  0  0
 33 34  1  0  0  0
 34 35  1  0  0  0
 33 36  1  0  0  0
 36 37  1  0  0  0
 37 38  1  0  0  0
 38 39  1  0  0  0
 39 40  1  0  0  0
 39 41  1  0  0  0
 41 42  1  0  0  0
 29 24  1  0  0  0
  9  3  1  0  0  0
 35 30  1  0  0  0
 42 36  1  0  0  0
 17 12  1  0  0  0
  1  2  1  0  0  0
 10 11  1  0  0  0
M  END
> <minimizedAffinity>
-7.52268

> <CNNscore>
0.1963925809

> <CNNaffinity>
7.2322874069

> <CNN_VS>
1.4203675985

> <CNNaffinity_variance>
0.0777630433

$$$$
[H]c1nc(N([H])c2c([H])c([H])c(N3C([H])([H])C([H])([H])C([H])(N4C([H])([H])C([H])([H])N(C([H])([H])[H])C([H])([H])C4([H])[H])C([H])([H])C3([H])[H])c([H])c2OC([H])([H])[H])nc(N([H])c2c([H])c([H])c([H])c([H])c2S(=O)(=O)C([H])(C([H])([H])[H])C([H])([H])[H])c1Cl


 44 48  0  0  0  0  0  0  0  0999 V2000
   -0.9887  -53.4150  -18.6686 N   0  0  0  0  0  0  0  0  0  0  0  0
   -1.2272  -54.4657  -18.7696 H   0  0  0  0  0  0  0  0  0  0  0  0
   -1.4766  -52.7723  -17.5001 C   0  0  0  0  0  0  0  0  0  0  0  0
   -2.7381  -52.7824  -17.0625 N   0  0  0  0  0  0  0  0  0  0  0  0
   -3.1311  -52.1540  -15.9475 C   0  0  0  0  0  0  0  0  0  0  0  0
   -2.2152  -51.4565  -15.1953 C   0  0  0  0  0  0  0  0  0  0  0  0
   -2.7136  -50.6241  -13.7258 Cl  0  0  0  0  0  0  0  0  0  0  0  0
   -0.8758  -51.4302  -15.6358 C   0  0  0  0  0  0  0  0  0  0  0  0
   -0.5836  -52.0877  -16.7598 N   0  0  0  0  0  0  0  0  0  0  0  0
    0.0390  -50.7132  -14.8494 N   0  0  0  0  0  0  0  0  0  0  0  0
   -0.2073  -49.6775  -14.7163 H   0  0  0  0  0  0  0  0  0  0  0  0
    1.2207  -51.1061  -14.2032 C   0  0  0  0  0  0  0  0  0  0  0  0
    1.2019  -52.1553  -13.3087 C   0  0  0  0  0  0  0  0  0  0  0  0
    2.3728  -52.5586  -12.6540 C   0  0  0  0  0  0  0  0  0  0  0  0
    3.5365  -51.8985  -12.9126 C   0  0  0  0  0  0  0  0  0  0  0  0
    3.5522  -50.8516  -13.8062 C   0  0  0  0  0  0  0  0  0  0  0  0
    2.4220  -50.4364  -14.4605 C   0  0  0  0  0  0  0  0  0  0  0  0
    2.4586  -49.1311  -15.5718 S   0  0  0  0  0  0  0  0  0  0  0  0
    3.6960  -48.2992  -15.3459 O   0  0  0  0  0  0  0  0  0  0  0  0
    1.2693  -48.2144  -15.5029 O   0  0  0  0  0  0  0  0  0  0  0  0
    2.5481  -49.6783  -17.2661 C   0  0  0  0  0  0  0  0  0  0  0  0
    2.6359  -48.5132  -18.1976 C   0  0  0  0  0  0  0  0  0  0  0  0
    3.5563  -50.7553  -17.4908 C   0  0  0  0  0  0  0  0  0  0  0  0
   -0.3777  -53.4516  -20.9919 C   0  0  0  0  0  0  0  0  0  0  0  0
    0.3300  -52.9762  -22.0806 C   0  0  0  0  0  0  0  0  0  0  0  0
    1.2048  -51.9181  -21.9728 C   0  0  0  0  0  0  0  0  0  0  0  0
    1.3347  -51.3615  -20.7236 C   0  0  0  0  0  0  0  0  0  0  0  0
    0.6348  -51.8176  -19.6022 C   0  0  0  0  0  0  0  0  0  0  0  0
   -0.2354  -52.8725  -19.7158 C   0  0  0  0  0  0  0  0  0  0  0  0
    1.9241  -51.4328  -23.1097 N   0  0  0  0  0  0  0  0  0  0  0  0
    1.3667  -51.6409  -24.4020 C   0  0  0  0  0  0  0  0  0  0  0  0
    1.9601  -50.8232  -25.5147 C   0  0  0  0  0  0  0  0  0  0  0  0
    3.4478  -50.7212  -25.4796 C   0  0  0  0  0  0  0  0  0  0  0  0
    4.0380  -51.1293  -24.1446 C   0  0  0  0  0  0  0  0  0  0  0  0
    3.1891  -50.7503  -22.9789 C   0  0  0  0  0  0  0  0  0  0  0  0
    4.0267  -49.5033  -25.8861 N   0  0  0  0  0  0  0  0  0  0  0  0
    5.2808  -49.1306  -25.3784 C   0  0  0  0  0  0  0  0  0  0  0  0
    5.5197  -47.6413  -25.6428 C   0  0  0  0  0  0  0  0  0  0  0  0
    5.1206  -47.3654  -27.0092 N   0  0  0  0  0  0  0  0  0  0  0  0
    5.9956  -47.9106  -27.9974 C   0  0  0  0  0  0  0  0  0  0  0  0
    3.7262  -47.5627  -27.2414 C   0  0  0  0  0  0  0  0  0  0  0  0
    3.1463  -48.4005  -26.1038 C   0  0  0  0  0  0  0  0  0  0  0  0
   -1.4850  -54.9886  -22.4782 C   0  0  0  0  0  0  0  0  0  0  0  0
   -1.2419  -54.5206  -21.1713 O   0  0  0  0  0  0  0  0  0  0  0  0
 43 44  1  0  0  0
 44 24  1  0  0  0
 24 25  2  0  0  0
 25 26  1  0  0  0
 26 27  2  0  0  0
 27 28  1  0  0  0
 28 29  2  0  0  0
 29  1  1  0  0  0
  1  3  1  0  0  0
  3  4  2  0  0  0
  4  5  1  0  0  0
  5  6  2  0  0  0
  6  7  1  0  0  0
  6  8  1  0  0  0
  8 10  1  0  0  0
 10 12  1  0  0  0
 12 13  2  0  0  0
 13 14  1  0  0  0
 14 15  2  0  0  0
 15 16  1  0  0  0
 16 17  2  0  0  0
 17 18  1  0  0  0
 18 19  2  0  0  0
 18 20  2  0  0  0
 18 21  1  0  0  0
 21 22  1  0  0  0
 21 23  1  0  0  0
  8  9  2  0  0  0
 26 30  1  0  0  0
 30 31  1  0  0  0
 31 32  1  0  0  0
 32 33  1  0  0  0
 33 34  1  0  0  0
 34 35  1  0  0  0
 33 36  1  0  0  0
 36 37  1  0  0  0
 37 38  1  0  0  0
 38 39  1  0  0  0
 39 40  1  0  0  0
 39 41  1  0  0  0
 41 42  1  0  0  0
 29 24  1  0  0  0
  9  3  1  0  0  0
 35 30  1  0  0  0
 42 36  1  0  0  0
 17 12  1  0  0  0
  1  2  1  0  0  0
 10 11  1  0  0  0
M  END
> <minimizedAffinity>
-7.65412

> <CNNscore>
0.1802893877

> <CNNaffinity>
7.2262201309

> <CNN_VS>
1.3028107882

> <CNNaffinity_variance>
0.0984627083

$$$$
[H]c1nc(N([H])c2c([H])c([H])c(N3C([H])([H])C([H])([H])C([H])(N4C([H])([H])C([H])([H])N(C([H])([H])[H])C([H])([H])C4([H])[H])C([H])([H])C3([H])[H])c([H])c2OC([H])([H])[H])nc(N([H])c2c([H])c([H])c([H])c([H])c2S(=O)(=O)C([H])(C([H])([H])[H])C([H])([H])[H])c1Cl


 44 48  0  0  0  0  0  0  0  0999 V2000
    0.3054  -51.3542  -19.5439 N   0  0  0  0  0  0  0  0  0  0  0  0
   -0.0969  -51.5475  -18.5580 H   0  0  0  0  0  0  0  0  0  0  0  0
   -0.0639  -52.2733  -20.5614 C   0  0  0  0  0  0  0  0  0  0  0  0
   -0.9347  -53.2782  -20.4387 N   0  0  0  0  0  0  0  0  0  0  0  0
   -1.2389  -54.1097  -21.4430 C   0  0  0  0  0  0  0  0  0  0  0  0
   -0.6429  -53.9468  -22.6716 C   0  0  0  0  0  0  0  0  0  0  0  0
   -1.0309  -55.0305  -24.0042 Cl  0  0  0  0  0  0  0  0  0  0  0  0
    0.2808  -52.8927  -22.8275 C   0  0  0  0  0  0  0  0  0  0  0  0
    0.5170  -52.1182  -21.7667 N   0  0  0  0  0  0  0  0  0  0  0  0
    0.8731  -52.7471  -24.0913 N   0  0  0  0  0  0  0  0  0  0  0  0
    0.6463  -53.5372  -24.7808 H   0  0  0  0  0  0  0  0  0  0  0  0
    1.7105  -51.7526  -24.6188 C   0  0  0  0  0  0  0  0  0  0  0  0
    2.2751  -50.8117  -23.7839 C   0  0  0  0  0  0  0  0  0  0  0  0
    3.1117  -49.8113  -24.2952 C   0  0  0  0  0  0  0  0  0  0  0  0
    3.3625  -49.7786  -25.6342 C   0  0  0  0  0  0  0  0  0  0  0  0
    2.7976  -50.7194  -26.4652 C   0  0  0  0  0  0  0  0  0  0  0  0
    1.9758  -51.7087  -25.9920 C   0  0  0  0  0  0  0  0  0  0  0  0
    1.2808  -52.8740  -27.0404 S   0  0  0  0  0  0  0  0  0  0  0  0
    1.0582  -54.1664  -26.2958 O   0  0  0  0  0  0  0  0  0  0  0  0
    2.0966  -53.1831  -28.2645 O   0  0  0  0  0  0  0  0  0  0  0  0
   -0.3235  -52.3816  -27.6420 C   0  0  0  0  0  0  0  0  0  0  0  0
   -0.6440  -53.0709  -28.9283 C   0  0  0  0  0  0  0  0  0  0  0  0
   -1.3918  -52.4381  -26.6015 C   0  0  0  0  0  0  0  0  0  0  0  0
    2.1967  -50.1128  -18.7351 C   0  0  0  0  0  0  0  0  0  0  0  0
    3.0531  -49.0275  -18.7631 C   0  0  0  0  0  0  0  0  0  0  0  0
    2.9012  -48.0055  -19.6736 C   0  0  0  0  0  0  0  0  0  0  0  0
    1.8519  -48.1247  -20.5521 C   0  0  0  0  0  0  0  0  0  0  0  0
    0.9677  -49.2080  -20.5510 C   0  0  0  0  0  0  0  0  0  0  0  0
    1.1240  -50.2234  -19.6413 C   0  0  0  0  0  0  0  0  0  0  0  0
    3.7996  -46.8929  -19.6950 N   0  0  0  0  0  0  0  0  0  0  0  0
    3.7884  -46.0363  -20.8310 C   0  0  0  0  0  0  0  0  0  0  0  0
    4.4745  -44.7098  -20.6625 C   0  0  0  0  0  0  0  0  0  0  0  0
    5.7761  -44.7763  -19.9369 C   0  0  0  0  0  0  0  0  0  0  0  0
    5.9706  -46.0794  -19.1878 C   0  0  0  0  0  0  0  0  0  0  0  0
    4.7101  -46.6251  -18.6076 C   0  0  0  0  0  0  0  0  0  0  0  0
    6.1027  -43.7027  -19.0857 N   0  0  0  0  0  0  0  0  0  0  0  0
    5.1488  -42.7042  -18.8354 C   0  0  0  0  0  0  0  0  0  0  0  0
    5.8356  -41.4802  -18.2230 C   0  0  0  0  0  0  0  0  0  0  0  0
    6.7535  -41.9519  -17.2044 N   0  0  0  0  0  0  0  0  0  0  0  0
    6.1172  -42.4607  -16.0316 C   0  0  0  0  0  0  0  0  0  0  0  0
    7.8162  -42.7489  -17.7266 C   0  0  0  0  0  0  0  0  0  0  0  0
    7.4437  -43.2148  -19.1325 C   0  0  0  0  0  0  0  0  0  0  0  0
    3.2980  -50.8587  -16.7280 C   0  0  0  0  0  0  0  0  0  0  0  0
    2.4075  -51.1065  -17.7918 O   0  0  0  0  0  0  0  0  0  0  0  0
 43 44  1  0  0  0
 44 24  1  0  0  0
 24 25  2  0  0  0
 25 26  1  0  0  0
 26 27  2  0  0  0
 27 28  1  0  0  0
 28 29  2  0  0  0
 29  1  1  0  0  0
  1  3  1  0  0  0
  3  4  2  0  0  0
  4  5  1  0  0  0
  5  6  2  0  0  0
  6  7  1  0  0  0
  6  8  1  0  0  0
  8 10  1  0  0  0
 10 12  1  0  0  0
 12 13  2  0  0  0
 13 14  1  0  0  0
 14 15  2  0  0  0
 15 16  1  0  0  0
 16 17  2  0  0  0
 17 18  1  0  0  0
 18 19  2  0  0  0
 18 20  2  0  0  0
 18 21  1  0  0  0
 21 22  1  0  0  0
 21 23  1  0  0  0
  8  9  2  0  0  0
 26 30  1  0  0  0
 30 31  1  0  0  0
 31 32  1  0  0  0
 32 33  1  0  0  0
 33 34  1  0  0  0
 34 35  1  0  0  0
 33 36  1  0  0  0
 36 37  1  0  0  0
 37 38  1  0  0  0
 38 39  1  0  0  0
 39 40  1  0  0  0
 39 41  1  0  0  0
 41 42  1  0  0  0
 29 24  1  0  0  0
  9  3  1  0  0  0
 35 30  1  0  0  0
 42 36  1  0  0  0
 17 12  1  0  0  0
  1  2  1  0  0  0
 10 11  1  0  0  0
M  END
> <minimizedAffinity>
-7.47717

> <CNNscore>
0.1474294811

> <CNNaffinity>
7.1526131630

> <CNN_VS>
1.0545060635

> <CNNaffinity_variance>
0.1357228905

$$$$
[H]c1nc(N([H])c2c([H])c([H])c(N3C([H])([H])C([H])([H])C([H])(N4C([H])([H])C([H])([H])N(C([H])([H])[H])C([H])([H])C4([H])[H])C([H])([H])C3([H])[H])c([H])c2OC([H])([H])[H])nc(N([H])c2c([H])c([H])c([H])c([H])c2S(=O)(=O)C([H])(C([H])([H])[H])C([H])([H])[H])c1Cl


 44 48  0  0  0  0  0  0  0  0999 V2000
    0.6661  -53.2010  -23.2256 N   0  0  0  0  0  0  0  0  0  0  0  0
    0.4937  -54.0971  -23.8075 H   0  0  0  0  0  0  0  0  0  0  0  0
    0.0972  -53.1808  -21.9247 C   0  0  0  0  0  0  0  0  0  0  0  0
   -0.7440  -54.0854  -21.4173 N   0  0  0  0  0  0  0  0  0  0  0  0
   -1.2434  -54.0060  -20.1777 C   0  0  0  0  0  0  0  0  0  0  0  0
   -0.8923  -52.9546  -19.3637 C   0  0  0  0  0  0  0  0  0  0  0  0
   -1.5391  -52.8338  -17.7304 Cl  0  0  0  0  0  0  0  0  0  0  0  0
   -0.0052  -51.9854  -19.8758 C   0  0  0  0  0  0  0  0  0  0  0  0
    0.4378  -52.1532  -21.1234 N   0  0  0  0  0  0  0  0  0  0  0  0
    0.3385  -50.9241  -19.0244 N   0  0  0  0  0  0  0  0  0  0  0  0
   -0.1508  -50.9453  -18.0699 H   0  0  0  0  0  0  0  0  0  0  0  0
    1.2090  -49.8371  -19.1951 C   0  0  0  0  0  0  0  0  0  0  0  0
    1.5724  -49.4368  -20.4636 C   0  0  0  0  0  0  0  0  0  0  0  0
    2.4420  -48.3546  -20.6508 C   0  0  0  0  0  0  0  0  0  0  0  0
    2.9272  -47.6988  -19.5593 C   0  0  0  0  0  0  0  0  0  0  0  0
    2.5624  -48.1007  -18.2942 C   0  0  0  0  0  0  0  0  0  0  0  0
    1.7136  -49.1555  -18.0822 C   0  0  0  0  0  0  0  0  0  0  0  0
    1.2681  -49.6428  -16.4998 S   0  0  0  0  0  0  0  0  0  0  0  0
    2.2630  -49.1102  -15.4994 O   0  0  0  0  0  0  0  0  0  0  0  0
    1.1711  -51.1301  -16.3048 O   0  0  0  0  0  0  0  0  0  0  0  0
   -0.3135  -48.9873  -16.0027 C   0  0  0  0  0  0  0  0  0  0  0  0
   -1.1929  -50.0693  -15.4655 C   0  0  0  0  0  0  0  0  0  0  0  0
   -0.2101  -47.7649  -15.1529 C   0  0  0  0  0  0  0  0  0  0  0  0
    0.8399  -51.5415  -24.9542 C   0  0  0  0  0  0  0  0  0  0  0  0
    1.5217  -50.5533  -25.6403 C   0  0  0  0  0  0  0  0  0  0  0  0
    2.8008  -50.1787  -25.2940 C   0  0  0  0  0  0  0  0  0  0  0  0
    3.3611  -50.8413  -24.2290 C   0  0  0  0  0  0  0  0  0  0  0  0
    2.7000  -51.8449  -23.5140 C   0  0  0  0  0  0  0  0  0  0  0  0
    1.4255  -52.2140  -23.8639 C   0  0  0  0  0  0  0  0  0  0  0  0
    3.4905  -49.1495  -26.0085 N   0  0  0  0  0  0  0  0  0  0  0  0
    3.9465  -49.4304  -27.3266 C   0  0  0  0  0  0  0  0  0  0  0  0
    4.3398  -48.2398  -28.1553 C   0  0  0  0  0  0  0  0  0  0  0  0
    5.1322  -47.2115  -27.4206 C   0  0  0  0  0  0  0  0  0  0  0  0
    5.0637  -47.3752  -25.9154 C   0  0  0  0  0  0  0  0  0  0  0  0
    3.7368  -47.8508  -25.4292 C   0  0  0  0  0  0  0  0  0  0  0  0
    4.9076  -45.8601  -27.7476 N   0  0  0  0  0  0  0  0  0  0  0  0
    5.2453  -44.8599  -26.8231 C   0  0  0  0  0  0  0  0  0  0  0  0
    4.5699  -43.5443  -27.2206 C   0  0  0  0  0  0  0  0  0  0  0  0
    4.7432  -43.3728  -28.6500 N   0  0  0  0  0  0  0  0  0  0  0  0
    6.0804  -43.0657  -29.0462 C   0  0  0  0  0  0  0  0  0  0  0  0
    4.0837  -44.3748  -29.4234 C   0  0  0  0  0  0  0  0  0  0  0  0
    3.7448  -45.5580  -28.5191 C   0  0  0  0  0  0  0  0  0  0  0  0
   -0.6368  -52.4393  -26.6309 C   0  0  0  0  0  0  0  0  0  0  0  0
   -0.4457  -51.8691  -25.3563 O   0  0  0  0  0  0  0  0  0  0  0  0
 43 44  1  0  0  0
 44 24  1  0  0  0
 24 25  2  0  0  0
 25 26  1  0  0  0
 26 27  2  0  0  0
 27 28  1  0  0  0
 28 29  2  0  0  0
 29  1  1  0  0  0
  1  3  1  0  0  0
  3  4  2  0  0  0
  4  5  1  0  0  0
  5  6  2  0  0  0
  6  7  1  0  0  0
  6  8  1  0  0  0
  8 10  1  0  0  0
 10 12  1  0  0  0
 12 13  2  0  0  0
 13 14  1  0  0  0
 14 15  2  0  0  0
 15 16  1  0  0  0
 16 17  2  0  0  0
 17 18  1  0  0  0
 18 19  2  0  0  0
 18 20  2  0  0  0
 18 21  1  0  0  0
 21 22  1  0  0  0
 21 23  1  0  0  0
  8  9  2  0  0  0
 26 30  1  0  0  0
 30 31  1  0  0  0
 31 32  1  0  0  0
 32 33  1  0  0  0
 33 34  1  0  0  0
 34 35  1  0  0  0
 33 36  1  0  0  0
 36 37  1  0  0  0
 37 38  1  0  0  0
 38 39  1  0  0  0
 39 40  1  0  0  0
 39 41  1  0  0  0
 41 42  1  0  0  0
 29 24  1  0  0  0
  9  3  1  0  0  0
 35 30  1  0  0  0
 42 36  1  0  0  0
 17 12  1  0  0  0
  1  2  1  0  0  0
 10 11  1  0  0  0
M  END
> <minimizedAffinity>
-6.84443

> <CNNscore>
0.1430594325

> <CNNaffinity>
7.1469674110

> <CNN_VS>
1.0224411488

> <CNNaffinity_variance>
0.1832085103

$$$$
[H]c1nc(N([H])c2c([H])c([H])c(N3C([H])([H])C([H])([H])C([H])(N4C([H])([H])C([H])([H])N(C([H])([H])[H])C([H])([H])C4([H])[H])C([H])([H])C3([H])[H])c([H])c2OC([H])([H])[H])nc(N([H])c2c([H])c([H])c([H])c([H])c2S(=O)(=O)C([H])(C([H])([H])[H])C([H])([H])[H])c1Cl


 44 48  0  0  0  0  0  0  0  0999 V2000
    0.8903  -51.0404  -19.2508 N   0  0  0  0  0  0  0  0  0  0  0  0
    0.2713  -50.5682  -18.4991 H   0  0  0  0  0  0  0  0  0  0  0  0
    0.2674  -52.0520  -20.0288 C   0  0  0  0  0  0  0  0  0  0  0  0
   -0.6968  -52.8804  -19.6198 N   0  0  0  0  0  0  0  0  0  0  0  0
   -1.2430  -53.8140  -20.4088 C   0  0  0  0  0  0  0  0  0  0  0  0
   -0.8117  -53.9511  -21.7074 C   0  0  0  0  0  0  0  0  0  0  0  0
   -1.5184  -55.1733  -22.7598 Cl  0  0  0  0  0  0  0  0  0  0  0  0
    0.2059  -53.0883  -22.1642 C   0  0  0  0  0  0  0  0  0  0  0  0
    0.6861  -52.1905  -21.3015 N   0  0  0  0  0  0  0  0  0  0  0  0
    0.6265  -53.2476  -23.4935 N   0  0  0  0  0  0  0  0  0  0  0  0
    0.3788  -54.1978  -23.9258 H   0  0  0  0  0  0  0  0  0  0  0  0
    1.3137  -52.3871  -24.3628 C   0  0  0  0  0  0  0  0  0  0  0  0
    2.2887  -51.5448  -23.8718 C   0  0  0  0  0  0  0  0  0  0  0  0
    2.9825  -50.6784  -24.7264 C   0  0  0  0  0  0  0  0  0  0  0  0
    2.6812  -50.6777  -26.0553 C   0  0  0  0  0  0  0  0  0  0  0  0
    1.7075  -51.5199  -26.5426 C   0  0  0  0  0  0  0  0  0  0  0  0
    1.0135  -52.3773  -25.7295 C   0  0  0  0  0  0  0  0  0  0  0  0
   -0.1959  -53.4211  -26.3524 S   0  0  0  0  0  0  0  0  0  0  0  0
   -1.5604  -52.8233  -26.1176 O   0  0  0  0  0  0  0  0  0  0  0  0
   -0.1932  -54.8053  -25.7665 O   0  0  0  0  0  0  0  0  0  0  0  0
   -0.0641  -53.6439  -28.1162 C   0  0  0  0  0  0  0  0  0  0  0  0
   -0.7797  -52.5534  -28.8452 C   0  0  0  0  0  0  0  0  0  0  0  0
    1.3282  -53.9170  -28.5787 C   0  0  0  0  0  0  0  0  0  0  0  0
    2.5365  -49.7209  -20.4002 C   0  0  0  0  0  0  0  0  0  0  0  0
    3.8126  -49.2086  -20.5461 C   0  0  0  0  0  0  0  0  0  0  0  0
    4.8181  -49.4971  -19.6504 C   0  0  0  0  0  0  0  0  0  0  0  0
    4.4824  -50.3217  -18.6043 C   0  0  0  0  0  0  0  0  0  0  0  0
    3.2026  -50.8567  -18.4273 C   0  0  0  0  0  0  0  0  0  0  0  0
    2.2047  -50.5658  -19.3232 C   0  0  0  0  0  0  0  0  0  0  0  0
    6.1313  -48.9536  -19.8106 N   0  0  0  0  0  0  0  0  0  0  0  0
    6.9553  -49.4709  -20.8487 C   0  0  0  0  0  0  0  0  0  0  0  0
    8.1622  -48.6484  -21.2032 C   0  0  0  0  0  0  0  0  0  0  0  0
    8.8996  -48.0973  -20.0294 C   0  0  0  0  0  0  0  0  0  0  0  0
    8.0937  -48.1481  -18.7468 C   0  0  0  0  0  0  0  0  0  0  0  0
    6.6361  -47.9099  -18.9511 C   0  0  0  0  0  0  0  0  0  0  0  0
    9.4729  -46.8178  -20.1628 N   0  0  0  0  0  0  0  0  0  0  0  0
    9.6629  -46.2755  -21.4430 C   0  0  0  0  0  0  0  0  0  0  0  0
   10.6284  -45.0899  -21.3602 C   0  0  0  0  0  0  0  0  0  0  0  0
   10.2374  -44.2800  -20.2228 N   0  0  0  0  0  0  0  0  0  0  0  0
    9.0170  -43.5615  -20.4060 C   0  0  0  0  0  0  0  0  0  0  0  0
   10.3752  -44.9564  -18.9735 C   0  0  0  0  0  0  0  0  0  0  0  0
   10.4929  -46.4572  -19.2310 C   0  0  0  0  0  0  0  0  0  0  0  0
    1.2586  -48.0311  -21.5445 C   0  0  0  0  0  0  0  0  0  0  0  0
    1.5718  -49.3897  -21.3391 O   0  0  0  0  0  0  0  0  0  0  0  0
 43 44  1  0  0  0
 44 24  1  0  0  0
 24 25  2  0  0  0
 25 26  1  0  0  0
 26 27  2  0  0  0
 27 28  1  0  0  0
 28 29  2  0  0  0
 29  1  1  0  0  0
  1  3  1  0  0  0
  3  4  2  0  0  0
  4  5  1  0  0  0
  5  6  2  0  0  0
  6  7  1  0  0  0
  6  8  1  0  0  0
  8 10  1  0  0  0
 10 12  1  0  0  0
 12 13  2  0  0  0
 13 14  1  0  0  0
 14 15  2  0  0  0
 15 16  1  0  0  0
 16 17  2  0  0  0
 17 18  1  0  0  0
 18 19  2  0  0  0
 18 20  2  0  0  0
 18 21  1  0  0  0
 21 22  1  0  0  0
 21 23  1  0  0  0
  8  9  2  0  0  0
 26 30  1  0  0  0
 30 31  1  0  0  0
 31 32  1  0  0  0
 32 33  1  0  0  0
 33 34  1  0  0  0
 34 35  1  0  0  0
 33 36  1  0  0  0
 36 37  1  0  0  0
 37 38  1  0  0  0
 38 39  1  0  0  0
 39 40  1  0  0  0
 39 41  1  0  0  0
 41 42  1  0  0  0
 29 24  1  0  0  0
  9  3  1  0  0  0
 35 30  1  0  0  0
 42 36  1  0  0  0
 17 12  1  0  0  0
  1  2  1  0  0  0
 10 11  1  0  0  0
M  END
> <minimizedAffinity>
-7.56347

> <CNNscore>
0.1353183091

> <CNNaffinity>
6.9324989319

> <CNN_VS>
0.9380940199

> <CNNaffinity_variance>
0.1771405190

$$$$
[H]c1nc(N([H])c2c([H])c([H])c(N3C([H])([H])C([H])([H])C([H])(N4C([H])([H])C([H])([H])N(C([H])([H])[H])C([H])([H])C4([H])[H])C([H])([H])C3([H])[H])c([H])c2OC([H])([H])[H])nc(N([H])c2c([H])c([H])c([H])c([H])c2S(=O)(=O)C([H])(C([H])([H])[H])C([H])([H])[H])c1Cl


 44 48  0  0  0  0  0  0  0  0999 V2000
    3.3196  -50.8514  -21.3831 N   0  0  0  0  0  0  0  0  0  0  0  0
    4.1799  -51.1452  -20.7960 H   0  0  0  0  0  0  0  0  0  0  0  0
    2.1155  -51.5585  -21.1255 C   0  0  0  0  0  0  0  0  0  0  0  0
    1.6398  -51.8951  -19.9239 N   0  0  0  0  0  0  0  0  0  0  0  0
    0.4925  -52.5634  -19.7519 C   0  0  0  0  0  0  0  0  0  0  0  0
   -0.2544  -52.9349  -20.8453 C   0  0  0  0  0  0  0  0  0  0  0  0
   -1.7660  -53.8141  -20.6384 Cl  0  0  0  0  0  0  0  0  0  0  0  0
    0.2260  -52.5915  -22.1259 C   0  0  0  0  0  0  0  0  0  0  0  0
    1.3802  -51.9248  -22.1929 N   0  0  0  0  0  0  0  0  0  0  0  0
   -0.5558  -52.9805  -23.2244 N   0  0  0  0  0  0  0  0  0  0  0  0
   -1.3106  -52.2714  -23.5045 H   0  0  0  0  0  0  0  0  0  0  0  0
   -0.5291  -54.1318  -24.0259 C   0  0  0  0  0  0  0  0  0  0  0  0
   -0.9208  -55.3459  -23.5026 C   0  0  0  0  0  0  0  0  0  0  0  0
   -0.8982  -56.5048  -24.2892 C   0  0  0  0  0  0  0  0  0  0  0  0
   -0.4824  -56.4180  -25.5839 C   0  0  0  0  0  0  0  0  0  0  0  0
   -0.0922  -55.2045  -26.1035 C   0  0  0  0  0  0  0  0  0  0  0  0
   -0.1045  -54.0554  -25.3569 C   0  0  0  0  0  0  0  0  0  0  0  0
    0.3837  -52.5512  -26.0195 S   0  0  0  0  0  0  0  0  0  0  0  0
    1.8471  -52.6001  -26.3805 O   0  0  0  0  0  0  0  0  0  0  0  0
    0.1722  -51.3688  -25.1158 O   0  0  0  0  0  0  0  0  0  0  0  0
   -0.4735  -52.1606  -27.5331 C   0  0  0  0  0  0  0  0  0  0  0  0
    0.1954  -52.8034  -28.7044 C   0  0  0  0  0  0  0  0  0  0  0  0
   -1.9499  -52.3612  -27.4491 C   0  0  0  0  0  0  0  0  0  0  0  0
    4.1031  -50.1622  -23.5472 C   0  0  0  0  0  0  0  0  0  0  0  0
    4.3612  -49.2024  -24.5087 C   0  0  0  0  0  0  0  0  0  0  0  0
    4.0907  -47.8691  -24.2953 C   0  0  0  0  0  0  0  0  0  0  0  0
    3.5502  -47.5461  -23.0744 C   0  0  0  0  0  0  0  0  0  0  0  0
    3.2770  -48.4911  -22.0804 C   0  0  0  0  0  0  0  0  0  0  0  0
    3.5488  -49.8183  -22.2988 C   0  0  0  0  0  0  0  0  0  0  0  0
    4.3564  -46.8889  -25.3023 N   0  0  0  0  0  0  0  0  0  0  0  0
    3.2524  -46.2858  -25.9670 C   0  0  0  0  0  0  0  0  0  0  0  0
    3.5546  -45.0356  -26.7444 C   0  0  0  0  0  0  0  0  0  0  0  0
    4.8141  -45.0941  -27.5415 C   0  0  0  0  0  0  0  0  0  0  0  0
    5.7263  -46.2305  -27.1248 C   0  0  0  0  0  0  0  0  0  0  0  0
    5.7012  -46.5059  -25.6596 C   0  0  0  0  0  0  0  0  0  0  0  0
    5.5716  -43.9117  -27.6501 N   0  0  0  0  0  0  0  0  0  0  0  0
    6.9118  -43.9845  -28.0599 C   0  0  0  0  0  0  0  0  0  0  0  0
    7.6205  -42.6668  -27.7341 C   0  0  0  0  0  0  0  0  0  0  0  0
    6.7433  -41.5830  -28.1321 N   0  0  0  0  0  0  0  0  0  0  0  0
    6.6128  -41.4226  -29.5451 C   0  0  0  0  0  0  0  0  0  0  0  0
    5.5250  -41.5404  -27.3897 C   0  0  0  0  0  0  0  0  0  0  0  0
    5.3208  -42.8834  -26.6918 C   0  0  0  0  0  0  0  0  0  0  0  0
    5.6943  -51.8144  -24.2791 C   0  0  0  0  0  0  0  0  0  0  0  0
    4.3999  -51.4868  -23.8284 O   0  0  0  0  0  0  0  0  0  0  0  0
 43 44  1  0  0  0
 44 24  1  0  0  0
 24 25  2  0  0  0
 25 26  1  0  0  0
 26 27  2  0  0  0
 27 28  1  0  0  0
 28 29  2  0  0  0
 29  1  1  0  0  0
  1  3  1  0  0  0
  3  4  2  0  0  0
  4  5  1  0  0  0
  5  6  2  0  0  0
  6  7  1  0  0  0
  6  8  1  0  0  0
  8 10  1  0  0  0
 10 12  1  0  0  0
 12 13  2  0  0  0
 13 14  1  0  0  0
 14 15  2  0  0  0
 15 16  1  0  0  0
 16 17  2  0  0  0
 17 18  1  0  0  0
 18 19  2  0  0  0
 18 20  2  0  0  0
 18 21  1  0  0  0
 21 22  1  0  0  0
 21 23  1  0  0  0
  8  9  2  0  0  0
 26 30  1  0  0  0
 30 31  1  0  0  0
 31 32  1  0  0  0
 32 33  1  0  0  0
 33 34  1  0  0  0
 34 35  1  0  0  0
 33 36  1  0  0  0
 36 37  1  0  0  0
 37 38  1  0  0  0
 38 39  1  0  0  0
 39 40  1  0  0  0
 39 41  1  0  0  0
 41 42  1  0  0  0
 29 24  1  0  0  0
  9  3  1  0  0  0
 35 30  1  0  0  0
 42 36  1  0  0  0
 17 12  1  0  0  0
  1  2  1  0  0  0
 10 11  1  0  0  0
M  END
> <minimizedAffinity>
-6.50544

> <CNNscore>
0.1296881735

> <CNNaffinity>
7.0424757004

> <CNN_VS>
0.9133257866

> <CNNaffinity_variance>
0.1200840622

$$$$
[H]c1nc(N([H])c2c([H])c([H])c(N3C([H])([H])C([H])([H])C([H])([H])[C@@]([H])(N4C([H])([H])C([H])([H])OC([H])([H])C4([H])[H])C3([H])[H])c([H])c2OC([H])([H])[H])nc(N([H])c2c([H])c([H])c([H])c([H])c2S(=O)(=O)C([H])(C([H])([H])[H])C([H])([H])[H])c1Cl


 43 47  0  0  0  0  0  0  0  0999 V2000
   -0.9561  -53.3901  -18.8083 N   0  0  0  0  0  0  0  0  0  0  0  0
   -1.2829  -54.4181  -18.8591 H   0  0  0  0  0  0  0  0  0  0  0  0
   -1.2404  -52.7469  -17.5979 C   0  0  0  0  0  0  0  0  0  0  0  0
   -2.5459  -52.8118  -17.1737 N   0  0  0  0  0  0  0  0  0  0  0  0
   -2.9626  -52.2065  -16.0562 C   0  0  0  0  0  0  0  0  0  0  0  0
   -2.0825  -51.4989  -15.3029 C   0  0  0  0  0  0  0  0  0  0  0  0
   -2.6366  -50.6901  -13.8167 Cl  0  0  0  0  0  0  0  0  0  0  0  0
   -0.7398  -51.3984  -15.6891 C   0  0  0  0  0  0  0  0  0  0  0  0
   -0.4287  -52.0391  -16.8174 N   0  0  0  0  0  0  0  0  0  0  0  0
    0.1155  -50.6706  -14.8525 N   0  0  0  0  0  0  0  0  0  0  0  0
   -0.2042  -49.6570  -14.6354 H   0  0  0  0  0  0  0  0  0  0  0  0
    1.3246  -51.0501  -14.2379 C   0  0  0  0  0  0  0  0  0  0  0  0
    1.4201  -52.0475  -13.3178 C   0  0  0  0  0  0  0  0  0  0  0  0
    2.6351  -52.4267  -12.7360 C   0  0  0  0  0  0  0  0  0  0  0  0
    3.7847  -51.7798  -13.0953 C   0  0  0  0  0  0  0  0  0  0  0  0
    3.7275  -50.7761  -14.0152 C   0  0  0  0  0  0  0  0  0  0  0  0
    2.5284  -50.4164  -14.5767 C   0  0  0  0  0  0  0  0  0  0  0  0
    2.4879  -49.1192  -15.7748 S   0  0  0  0  0  0  0  0  0  0  0  0
    1.2747  -48.2286  -15.5656 O   0  0  0  0  0  0  0  0  0  0  0  0
    3.7663  -48.3722  -15.7766 O   0  0  0  0  0  0  0  0  0  0  0  0
    2.2411  -49.8294  -17.4020 C   0  0  0  0  0  0  0  0  0  0  0  0
    3.4551  -50.7482  -17.6527 C   0  0  0  0  0  0  0  0  0  0  0  0
    2.3545  -48.7187  -18.4130 C   0  0  0  0  0  0  0  0  0  0  0  0
   -0.5950  -53.4871  -21.1731 C   0  0  0  0  0  0  0  0  0  0  0  0
    0.0536  -53.0743  -22.3144 C   0  0  0  0  0  0  0  0  0  0  0  0
    1.0020  -52.0769  -22.3295 C   0  0  0  0  0  0  0  0  0  0  0  0
    1.2825  -51.4891  -21.1094 C   0  0  0  0  0  0  0  0  0  0  0  0
    0.6287  -51.9023  -19.9482 C   0  0  0  0  0  0  0  0  0  0  0  0
   -0.3045  -52.8886  -19.9539 C   0  0  0  0  0  0  0  0  0  0  0  0
    1.6591  -51.6530  -23.5058 N   0  0  0  0  0  0  0  0  0  0  0  0
    3.0966  -51.3425  -23.5343 C   0  0  0  0  0  0  0  0  0  0  0  0
    3.6146  -51.8732  -24.8616 C   0  0  0  0  0  0  0  0  0  0  0  0
    2.7324  -53.0619  -25.2407 C   0  0  0  0  0  0  0  0  0  0  0  0
    1.4424  -52.4830  -25.8065 C   0  0  0  0  0  0  0  0  0  0  0  0
    0.9517  -51.4917  -24.7699 C   0  0  0  0  0  0  0  0  0  0  0  0
    0.4558  -53.4851  -26.0579 N   0  0  0  0  0  0  0  0  0  0  0  0
   -0.8604  -53.0727  -25.6930 C   0  0  0  0  0  0  0  0  0  0  0  0
   -1.5481  -52.2503  -26.7715 C   0  0  0  0  0  0  0  0  0  0  0  0
   -1.5082  -52.9043  -27.9876 O   0  0  0  0  0  0  0  0  0  0  0  0
   -0.1987  -53.1508  -28.3949 C   0  0  0  0  0  0  0  0  0  0  0  0
    0.4612  -54.0464  -27.3699 C   0  0  0  0  0  0  0  0  0  0  0  0
   -1.7758  -55.1256  -22.4736 C   0  0  0  0  0  0  0  0  0  0  0  0
   -1.5453  -54.5046  -21.2266 O   0  0  0  0  0  0  0  0  0  0  0  0
 42 43  1  0  0  0
 43 24  1  0  0  0
 24 25  2  0  0  0
 25 26  1  0  0  0
 26 27  2  0  0  0
 27 28  1  0  0  0
 28 29  2  0  0  0
 29  1  1  0  0  0
  1  3  1  0  0  0
  3  4  2  0  0  0
  4  5  1  0  0  0
  5  6  2  0  0  0
  6  7  1  0  0  0
  6  8  1  0  0  0
  8 10  1  0  0  0
 10 12  1  0  0  0
 12 13  2  0  0  0
 13 14  1  0  0  0
 14 15  2  0  0  0
 15 16  1  0  0  0
 16 17  2  0  0  0
 17 18  1  0  0  0
 18 19  2  0  0  0
 18 20  2  0  0  0
 18 21  1  0  0  0
 21 22  1  0  0  0
 21 23  1  0  0  0
  8  9  2  0  0  0
 26 30  1  0  0  0
 30 31  1  0  0  0
 31 32  1  0  0  0
 32 33  1  0  0  0
 33 34  1  0  0  0
 34 35  1  0  0  0
 34 36  1  0  0  0
 36 37  1  0  0  0
 37 38  1  0  0  0
 38 39  1  0  0  0
 39 40  1  0  0  0
 40 41  1  0  0  0
 29 24  1  0  0  0
  9  3  1  0  0  0
 35 30  1  0  0  0
 41 36  1  0  0  0
 17 12  1  0  0  0
  1  2  1  0  0  0
 10 11  1  0  0  0
M  END
> <minimizedAffinity>
-8.59732

> <CNNscore>
0.4641765058

> <CNNaffinity>
7.8623609543

> <CNN_VS>
3.6495232582

> <CNNaffinity_variance>
0.0845274702

$$$$
[H]c1nc(N([H])c2c([H])c([H])c(N3C([H])([H])C([H])([H])C([H])([H])[C@@]([H])(N4C([H])([H])C([H])([H])OC([H])([H])C4([H])[H])C3([H])[H])c([H])c2OC([H])([H])[H])nc(N([H])c2c([H])c([H])c([H])c([H])c2S(=O)(=O)C([H])(C([H])([H])[H])C([H])([H])[H])c1Cl


 43 47  0  0  0  0  0  0  0  0999 V2000
   -0.9353  -53.4847  -19.3262 N   0  0  0  0  0  0  0  0  0  0  0  0
   -1.4142  -54.4443  -19.4526 H   0  0  0  0  0  0  0  0  0  0  0  0
   -1.1650  -52.8770  -18.0863 C   0  0  0  0  0  0  0  0  0  0  0  0
   -2.4110  -53.0736  -17.5409 N   0  0  0  0  0  0  0  0  0  0  0  0
   -2.7769  -52.5167  -16.3813 C   0  0  0  0  0  0  0  0  0  0  0  0
   -1.9035  -51.7268  -15.7059 C   0  0  0  0  0  0  0  0  0  0  0  0
   -2.3903  -50.9823  -14.1637 Cl  0  0  0  0  0  0  0  0  0  0  0  0
   -0.6205  -51.4912  -16.2165 C   0  0  0  0  0  0  0  0  0  0  0  0
   -0.3567  -52.0940  -17.3773 N   0  0  0  0  0  0  0  0  0  0  0  0
    0.2343  -50.6841  -15.4557 N   0  0  0  0  0  0  0  0  0  0  0  0
   -0.0030  -49.6257  -15.4629 H   0  0  0  0  0  0  0  0  0  0  0  0
    1.3519  -51.0307  -14.6717 C   0  0  0  0  0  0  0  0  0  0  0  0
    1.3374  -52.0180  -13.7360 C   0  0  0  0  0  0  0  0  0  0  0  0
    2.4655  -52.3644  -12.9837 C   0  0  0  0  0  0  0  0  0  0  0  0
    3.6402  -51.6942  -13.1839 C   0  0  0  0  0  0  0  0  0  0  0  0
    3.6924  -50.6997  -14.1141 C   0  0  0  0  0  0  0  0  0  0  0  0
    2.5777  -50.3723  -14.8438 C   0  0  0  0  0  0  0  0  0  0  0  0
    2.6797  -49.0863  -16.0503 S   0  0  0  0  0  0  0  0  0  0  0  0
    1.4403  -48.2080  -16.0094 O   0  0  0  0  0  0  0  0  0  0  0  0
    3.9396  -48.3245  -15.8939 O   0  0  0  0  0  0  0  0  0  0  0  0
    2.6536  -49.8137  -17.6884 C   0  0  0  0  0  0  0  0  0  0  0  0
    3.9775  -49.3938  -18.3604 C   0  0  0  0  0  0  0  0  0  0  0  0
    1.5633  -49.1371  -18.4771 C   0  0  0  0  0  0  0  0  0  0  0  0
   -0.3254  -53.6773  -21.6334 C   0  0  0  0  0  0  0  0  0  0  0  0
    0.4377  -53.3058  -22.7166 C   0  0  0  0  0  0  0  0  0  0  0  0
    1.3761  -52.2998  -22.6744 C   0  0  0  0  0  0  0  0  0  0  0  0
    1.5223  -51.6582  -21.4580 C   0  0  0  0  0  0  0  0  0  0  0  0
    0.7519  -52.0292  -20.3556 C   0  0  0  0  0  0  0  0  0  0  0  0
   -0.1692  -53.0249  -20.4172 C   0  0  0  0  0  0  0  0  0  0  0  0
    2.1514  -51.9188  -23.7920 N   0  0  0  0  0  0  0  0  0  0  0  0
    1.5432  -51.5115  -25.0680 C   0  0  0  0  0  0  0  0  0  0  0  0
    2.3902  -50.3611  -25.5885 C   0  0  0  0  0  0  0  0  0  0  0  0
    2.9789  -49.6539  -24.3685 C   0  0  0  0  0  0  0  0  0  0  0  0
    4.1537  -50.5017  -23.8993 C   0  0  0  0  0  0  0  0  0  0  0  0
    3.6083  -51.9086  -23.7537 C   0  0  0  0  0  0  0  0  0  0  0  0
    4.7042  -50.0401  -22.6645 N   0  0  0  0  0  0  0  0  0  0  0  0
    5.8160  -50.8194  -22.2262 C   0  0  0  0  0  0  0  0  0  0  0  0
    7.1291  -50.3984  -22.8674 C   0  0  0  0  0  0  0  0  0  0  0  0
    7.3339  -49.0403  -22.7198 O   0  0  0  0  0  0  0  0  0  0  0  0
    6.3068  -48.3003  -23.3019 C   0  0  0  0  0  0  0  0  0  0  0  0
    5.0108  -48.6477  -22.6033 C   0  0  0  0  0  0  0  0  0  0  0  0
   -1.4921  -55.2494  -23.0252 C   0  0  0  0  0  0  0  0  0  0  0  0
   -1.2583  -54.7062  -21.7430 O   0  0  0  0  0  0  0  0  0  0  0  0
 42 43  1  0  0  0
 43 24  1  0  0  0
 24 25  2  0  0  0
 25 26  1  0  0  0
 26 27  2  0  0  0
 27 28  1  0  0  0
 28 29  2  0  0  0
 29  1  1  0  0  0
  1  3  1  0  0  0
  3  4  2  0  0  0
  4  5  1  0  0  0
  5  6  2  0  0  0
  6  7  1  0  0  0
  6  8  1  0  0  0
  8 10  1  0  0  0
 10 12  1  0  0  0
 12 13  2  0  0  0
 13 14  1  0  0  0
 14 15  2  0  0  0
 15 16  1  0  0  0
 16 17  2  0  0  0
 17 18  1  0  0  0
 18 19  2  0  0  0
 18 20  2  0  0  0
 18 21  1  0  0  0
 21 22  1  0  0  0
 21 23  1  0  0  0
  8  9  2  0  0  0
 26 30  1  0  0  0
 30 31  1  0  0  0
 31 32  1  0  0  0
 32 33  1  0  0  0
 33 34  1  0  0  0
 34 35  1  0  0  0
 34 36  1  0  0  0
 36 37  1  0  0  0
 37 38  1  0  0  0
 38 39  1  0  0  0
 39 40  1  0  0  0
 40 41  1  0  0  0
 29 24  1  0  0  0
  9  3  1  0  0  0
 35 30  1  0  0  0
 41 36  1  0  0  0
 17 12  1  0  0  0
  1  2  1  0  0  0
 10 11  1  0  0  0
M  END
> <minimizedAffinity>
-7.52987

> <CNNscore>
0.4248021245

> <CNNaffinity>
7.5997977257

> <CNN_VS>
3.2284102440

> <CNNaffinity_variance>
0.0701095611

$$$$
[H]c1nc(N([H])c2c([H])c([H])c(N3C([H])([H])C([H])([H])C([H])([H])[C@@]([H])(N4C([H])([H])C([H])([H])OC([H])([H])C4([H])[H])C3([H])[H])c([H])c2OC([H])([H])[H])nc(N([H])c2c([H])c([H])c([H])c([H])c2S(=O)(=O)C([H])(C([H])([H])[H])C([H])([H])[H])c1Cl


 43 47  0  0  0  0  0  0  0  0999 V2000
   -0.6568  -53.4168  -18.4162 N   0  0  0  0  0  0  0  0  0  0  0  0
   -0.5063  -54.4761  -18.2705 H   0  0  0  0  0  0  0  0  0  0  0  0
   -1.4054  -52.7905  -17.4128 C   0  0  0  0  0  0  0  0  0  0  0  0
   -2.7375  -53.1238  -17.3584 N   0  0  0  0  0  0  0  0  0  0  0  0
   -3.5751  -52.5691  -16.4756 C   0  0  0  0  0  0  0  0  0  0  0  0
   -3.1139  -51.6433  -15.5964 C   0  0  0  0  0  0  0  0  0  0  0  0
   -4.2284  -50.9018  -14.4226 Cl  0  0  0  0  0  0  0  0  0  0  0  0
   -1.7652  -51.2650  -15.6083 C   0  0  0  0  0  0  0  0  0  0  0  0
   -1.0161  -51.8785  -16.5263 N   0  0  0  0  0  0  0  0  0  0  0  0
   -1.3555  -50.3208  -14.6587 N   0  0  0  0  0  0  0  0  0  0  0  0
   -1.0974  -50.7265  -13.6864 H   0  0  0  0  0  0  0  0  0  0  0  0
   -1.2154  -48.9236  -14.7688 C   0  0  0  0  0  0  0  0  0  0  0  0
   -2.2671  -48.0693  -14.8897 C   0  0  0  0  0  0  0  0  0  0  0  0
   -2.1090  -46.6814  -14.9731 C   0  0  0  0  0  0  0  0  0  0  0  0
   -0.8530  -46.1430  -14.9325 C   0  0  0  0  0  0  0  0  0  0  0  0
    0.2245  -46.9683  -14.8106 C   0  0  0  0  0  0  0  0  0  0  0  0
    0.0527  -48.3270  -14.7296 C   0  0  0  0  0  0  0  0  0  0  0  0
    1.4681  -49.3702  -14.5607 S   0  0  0  0  0  0  0  0  0  0  0  0
    2.7123  -48.5489  -14.2670 O   0  0  0  0  0  0  0  0  0  0  0  0
    1.2177  -50.4287  -13.5562 O   0  0  0  0  0  0  0  0  0  0  0  0
    1.8143  -50.1510  -16.1367 C   0  0  0  0  0  0  0  0  0  0  0  0
    3.3134  -50.5152  -16.1097 C   0  0  0  0  0  0  0  0  0  0  0  0
    1.6676  -49.1065  -17.2119 C   0  0  0  0  0  0  0  0  0  0  0  0
   -0.4887  -53.3551  -20.8037 C   0  0  0  0  0  0  0  0  0  0  0  0
    0.0868  -52.8874  -21.9629 C   0  0  0  0  0  0  0  0  0  0  0  0
    1.0780  -51.9327  -21.9863 C   0  0  0  0  0  0  0  0  0  0  0  0
    1.4820  -51.4484  -20.7554 C   0  0  0  0  0  0  0  0  0  0  0  0
    0.9028  -51.9177  -19.5761 C   0  0  0  0  0  0  0  0  0  0  0  0
   -0.0743  -52.8606  -19.5738 C   0  0  0  0  0  0  0  0  0  0  0  0
    1.6598  -51.4517  -23.1802 N   0  0  0  0  0  0  0  0  0  0  0  0
    3.0734  -51.0527  -23.2602 C   0  0  0  0  0  0  0  0  0  0  0  0
    3.5686  -51.5309  -24.6159 C   0  0  0  0  0  0  0  0  0  0  0  0
    2.7459  -52.7660  -24.9802 C   0  0  0  0  0  0  0  0  0  0  0  0
    1.4011  -52.2595  -25.4844 C   0  0  0  0  0  0  0  0  0  0  0  0
    0.8932  -51.3158  -24.4124 C   0  0  0  0  0  0  0  0  0  0  0  0
    0.4681  -53.3167  -25.7139 N   0  0  0  0  0  0  0  0  0  0  0  0
   -0.8768  -52.9449  -25.4165 C   0  0  0  0  0  0  0  0  0  0  0  0
   -1.5599  -52.2125  -26.5609 C   0  0  0  0  0  0  0  0  0  0  0  0
   -1.4482  -52.9278  -27.7374 O   0  0  0  0  0  0  0  0  0  0  0  0
   -0.1155  -53.1366  -28.0863 C   0  0  0  0  0  0  0  0  0  0  0  0
    0.5449  -53.9461  -26.9924 C   0  0  0  0  0  0  0  0  0  0  0  0
   -1.7599  -54.9318  -22.0952 C   0  0  0  0  0  0  0  0  0  0  0  0
   -1.4881  -54.3247  -20.8497 O   0  0  0  0  0  0  0  0  0  0  0  0
 42 43  1  0  0  0
 43 24  1  0  0  0
 24 25  2  0  0  0
 25 26  1  0  0  0
 26 27  2  0  0  0
 27 28  1  0  0  0
 28 29  2  0  0  0
 29  1  1  0  0  0
  1  3  1  0  0  0
  3  4  2  0  0  0
  4  5  1  0  0  0
  5  6  2  0  0  0
  6  7  1  0  0  0
  6  8  1  0  0  0
  8 10  1  0  0  0
 10 12  1  0  0  0
 12 13  2  0  0  0
 13 14  1  0  0  0
 14 15  2  0  0  0
 15 16  1  0  0  0
 16 17  2  0  0  0
 17 18  1  0  0  0
 18 19  2  0  0  0
 18 20  2  0  0  0
 18 21  1  0  0  0
 21 22  1  0  0  0
 21 23  1  0  0  0
  8  9  2  0  0  0
 26 30  1  0  0  0
 30 31  1  0  0  0
 31 32  1  0  0  0
 32 33  1  0  0  0
 33 34  1  0  0  0
 34 35  1  0  0  0
 34 36  1  0  0  0
 36 37  1  0  0  0
 37 38  1  0  0  0
 38 39  1  0  0  0
 39 40  1  0  0  0
 40 41  1  0  0  0
 29 24  1  0  0  0
  9  3  1  0  0  0
 35 30  1  0  0  0
 41 36  1  0  0  0
 17 12  1  0  0  0
  1  2  1  0  0  0
 10 11  1  0  0  0
M  END
> <minimizedAffinity>
-8.31236

> <CNNscore>
0.4202873111

> <CNNaffinity>
7.6948289871

> <CNN_VS>
3.2340390682

> <CNNaffinity_variance>
0.1051244959

$$$$
[H]c1nc(N([H])c2c([H])c([H])c(N3C([H])([H])C([H])([H])C([H])([H])[C@@]([H])(N4C([H])([H])C([H])([H])OC([H])([H])C4([H])[H])C3([H])[H])c([H])c2OC([H])([H])[H])nc(N([H])c2c([H])c([H])c([H])c([H])c2S(=O)(=O)C([H])(C([H])([H])[H])C([H])([H])[H])c1Cl


 43 47  0  0  0  0  0  0  0  0999 V2000
    0.5171  -53.2570  -20.3684 N   0  0  0  0  0  0  0  0  0  0  0  0
    0.7109  -54.3176  -20.3077 H   0  0  0  0  0  0  0  0  0  0  0  0
    0.5599  -52.7294  -21.6643 C   0  0  0  0  0  0  0  0  0  0  0  0
   -0.2357  -53.3535  -22.5951 N   0  0  0  0  0  0  0  0  0  0  0  0
   -0.2595  -52.9776  -23.8784 C   0  0  0  0  0  0  0  0  0  0  0  0
    0.5214  -51.9485  -24.2955 C   0  0  0  0  0  0  0  0  0  0  0  0
    0.4929  -51.4491  -26.0041 Cl  0  0  0  0  0  0  0  0  0  0  0  0
    1.3528  -51.2776  -23.3895 C   0  0  0  0  0  0  0  0  0  0  0  0
    1.3006  -51.7302  -22.1354 N   0  0  0  0  0  0  0  0  0  0  0  0
    2.1142  -50.2121  -23.8856 N   0  0  0  0  0  0  0  0  0  0  0  0
    2.1889  -50.1626  -24.9666 H   0  0  0  0  0  0  0  0  0  0  0  0
    2.7930  -49.1848  -23.2017 C   0  0  0  0  0  0  0  0  0  0  0  0
    2.2109  -48.3973  -22.2575 C   0  0  0  0  0  0  0  0  0  0  0  0
    2.9088  -47.3973  -21.5709 C   0  0  0  0  0  0  0  0  0  0  0  0
    4.2315  -47.1888  -21.8465 C   0  0  0  0  0  0  0  0  0  0  0  0
    4.8484  -47.9597  -22.7857 C   0  0  0  0  0  0  0  0  0  0  0  0
    4.1503  -48.9364  -23.4499 C   0  0  0  0  0  0  0  0  0  0  0  0
    4.9803  -49.9271  -24.6538 S   0  0  0  0  0  0  0  0  0  0  0  0
    3.9805  -50.6731  -25.5215 O   0  0  0  0  0  0  0  0  0  0  0  0
    5.9329  -49.1067  -25.4359 O   0  0  0  0  0  0  0  0  0  0  0  0
    5.8960  -51.2224  -23.8191 C   0  0  0  0  0  0  0  0  0  0  0  0
    5.1113  -51.5320  -22.5272 C   0  0  0  0  0  0  0  0  0  0  0  0
    7.2108  -50.6420  -23.3686 C   0  0  0  0  0  0  0  0  0  0  0  0
    1.2764  -51.8506  -18.5858 C   0  0  0  0  0  0  0  0  0  0  0  0
    1.0914  -51.2373  -17.3680 C   0  0  0  0  0  0  0  0  0  0  0  0
   -0.0766  -51.3232  -16.6448 C   0  0  0  0  0  0  0  0  0  0  0  0
   -1.0878  -52.0756  -17.2141 C   0  0  0  0  0  0  0  0  0  0  0  0
   -0.9074  -52.7000  -18.4487 C   0  0  0  0  0  0  0  0  0  0  0  0
    0.2530  -52.6034  -19.1471 C   0  0  0  0  0  0  0  0  0  0  0  0
   -0.2625  -50.6853  -15.3983 N   0  0  0  0  0  0  0  0  0  0  0  0
    0.5605  -49.5441  -14.9692 C   0  0  0  0  0  0  0  0  0  0  0  0
   -0.3832  -48.5919  -14.2521 C   0  0  0  0  0  0  0  0  0  0  0  0
   -1.7670  -48.7868  -14.8702 C   0  0  0  0  0  0  0  0  0  0  0  0
   -2.3428  -50.0559  -14.2560 C   0  0  0  0  0  0  0  0  0  0  0  0
   -1.2823  -51.1211  -14.4525 C   0  0  0  0  0  0  0  0  0  0  0  0
   -3.5753  -50.4482  -14.8626 N   0  0  0  0  0  0  0  0  0  0  0  0
   -3.8526  -51.8391  -14.7077 C   0  0  0  0  0  0  0  0  0  0  0  0
   -4.5045  -52.1723  -13.3748 C   0  0  0  0  0  0  0  0  0  0  0  0
   -5.6125  -51.3765  -13.1579 O   0  0  0  0  0  0  0  0  0  0  0  0
   -5.2798  -50.0234  -13.1551 C   0  0  0  0  0  0  0  0  0  0  0  0
   -4.7163  -49.6659  -14.5125 C   0  0  0  0  0  0  0  0  0  0  0  0
    3.4644  -50.8680  -18.7171 C   0  0  0  0  0  0  0  0  0  0  0  0
    2.4855  -51.7246  -19.2665 O   0  0  0  0  0  0  0  0  0  0  0  0
 42 43  1  0  0  0
 43 24  1  0  0  0
 24 25  2  0  0  0
 25 26  1  0  0  0
 26 27  2  0  0  0
 27 28  1  0  0  0
 28 29  2  0  0  0
 29  1  1  0  0  0
  1  3  1  0  0  0
  3  4  2  0  0  0
  4  5  1  0  0  0
  5  6  2  0  0  0
  6  7  1  0  0  0
  6  8  1  0  0  0
  8 10  1  0  0  0
 10 12  1  0  0  0
 12 13  2  0  0  0
 13 14  1  0  0  0
 14 15  2  0  0  0
 15 16  1  0  0  0
 16 17  2  0  0  0
 17 18  1  0  0  0
 18 19  2  0  0  0
 18 20  2  0  0  0
 18 21  1  0  0  0
 21 22  1  0  0  0
 21 23  1  0  0  0
  8  9  2  0  0  0
 26 30  1  0  0  0
 30 31  1  0  0  0
 31 32  1  0  0  0
 32 33  1  0  0  0
 33 34  1  0  0  0
 34 35  1  0  0  0
 34 36  1  0  0  0
 36 37  1  0  0  0
 37 38  1  0  0  0
 38 39  1  0  0  0
 39 40  1  0  0  0
 40 41  1  0  0  0
 29 24  1  0  0  0
  9  3  1  0  0  0
 35 30  1  0  0  0
 41 36  1  0  0  0
 17 12  1  0  0  0
  1  2  1  0  0  0
 10 11  1  0  0  0
M  END
> <minimizedAffinity>
-7.05064

> <CNNscore>
0.2343840450

> <CNNaffinity>
7.3174705505

> <CNN_VS>
1.7150983810

> <CNNaffinity_variance>
0.0883918703

$$$$
[H]c1nc(N([H])c2c([H])c([H])c(N3C([H])([H])C([H])([H])C([H])([H])[C@@]([H])(N4C([H])([H])C([H])([H])OC([H])([H])C4([H])[H])C3([H])[H])c([H])c2OC([H])([H])[H])nc(N([H])c2c([H])c([H])c([H])c([H])c2S(=O)(=O)C([H])(C([H])([H])[H])C([H])([H])[H])c1Cl


 43 47  0  0  0  0  0  0  0  0999 V2000
   -1.0040  -53.4258  -18.5384 N   0  0  0  0  0  0  0  0  0  0  0  0
   -1.1939  -54.4883  -18.5708 H   0  0  0  0  0  0  0  0  0  0  0  0
   -1.5832  -52.7627  -17.4502 C   0  0  0  0  0  0  0  0  0  0  0  0
   -2.9170  -53.0126  -17.2332 N   0  0  0  0  0  0  0  0  0  0  0  0
   -3.6036  -52.4143  -16.2537 C   0  0  0  0  0  0  0  0  0  0  0  0
   -2.9808  -51.5268  -15.4369 C   0  0  0  0  0  0  0  0  0  0  0  0
   -3.8944  -50.7273  -14.1346 Cl  0  0  0  0  0  0  0  0  0  0  0  0
   -1.6226  -51.2333  -15.6138 C   0  0  0  0  0  0  0  0  0  0  0  0
   -1.0316  -51.8844  -16.6173 N   0  0  0  0  0  0  0  0  0  0  0  0
   -1.0411  -50.3248  -14.7208 N   0  0  0  0  0  0  0  0  0  0  0  0
   -0.6533  -50.7608  -13.8064 H   0  0  0  0  0  0  0  0  0  0  0  0
   -0.8703  -48.9306  -14.8259 C   0  0  0  0  0  0  0  0  0  0  0  0
   -1.9040  -48.0499  -14.9049 C   0  0  0  0  0  0  0  0  0  0  0  0
   -1.7144  -46.6657  -14.9840 C   0  0  0  0  0  0  0  0  0  0  0  0
   -0.4448  -46.1586  -14.9826 C   0  0  0  0  0  0  0  0  0  0  0  0
    0.6155  -47.0110  -14.9034 C   0  0  0  0  0  0  0  0  0  0  0  0
    0.4129  -48.3657  -14.8260 C   0  0  0  0  0  0  0  0  0  0  0  0
    1.8069  -49.4445  -14.7128 S   0  0  0  0  0  0  0  0  0  0  0  0
    3.0841  -48.6542  -14.4823 O   0  0  0  0  0  0  0  0  0  0  0  0
    1.5749  -50.4892  -13.6895 O   0  0  0  0  0  0  0  0  0  0  0  0
    2.0608  -50.2450  -16.2964 C   0  0  0  0  0  0  0  0  0  0  0  0
    3.5020  -50.7952  -16.2677 C   0  0  0  0  0  0  0  0  0  0  0  0
    2.0524  -49.1785  -17.3599 C   0  0  0  0  0  0  0  0  0  0  0  0
   -0.3975  -53.4295  -20.8545 C   0  0  0  0  0  0  0  0  0  0  0  0
    0.3873  -52.9970  -21.8988 C   0  0  0  0  0  0  0  0  0  0  0  0
    1.3767  -52.0498  -21.7627 C   0  0  0  0  0  0  0  0  0  0  0  0
    1.5523  -51.5354  -20.4910 C   0  0  0  0  0  0  0  0  0  0  0  0
    0.7600  -51.9689  -19.4275 C   0  0  0  0  0  0  0  0  0  0  0  0
   -0.2115  -52.9048  -19.5821 C   0  0  0  0  0  0  0  0  0  0  0  0
    2.1744  -51.6051  -22.8404 N   0  0  0  0  0  0  0  0  0  0  0  0
    1.6008  -51.2450  -24.1461 C   0  0  0  0  0  0  0  0  0  0  0  0
    2.3778  -50.0290  -24.6251 C   0  0  0  0  0  0  0  0  0  0  0  0
    2.8453  -49.2797  -23.3782 C   0  0  0  0  0  0  0  0  0  0  0  0
    4.0592  -50.0315  -22.8486 C   0  0  0  0  0  0  0  0  0  0  0  0
    3.6220  -51.4780  -22.7284 C   0  0  0  0  0  0  0  0  0  0  0  0
    4.5078  -49.5302  -21.5884 N   0  0  0  0  0  0  0  0  0  0  0  0
    5.4003  -50.4215  -20.9218 C   0  0  0  0  0  0  0  0  0  0  0  0
    6.8407  -50.2836  -21.3896 C   0  0  0  0  0  0  0  0  0  0  0  0
    7.2524  -48.9664  -21.3288 O   0  0  0  0  0  0  0  0  0  0  0  0
    6.4552  -48.1426  -22.1208 C   0  0  0  0  0  0  0  0  0  0  0  0
    5.0364  -48.2047  -21.6001 C   0  0  0  0  0  0  0  0  0  0  0  0
   -1.5259  -54.9213  -22.3616 C   0  0  0  0  0  0  0  0  0  0  0  0
   -1.3824  -54.3933  -21.0599 O   0  0  0  0  0  0  0  0  0  0  0  0
 42 43  1  0  0  0
 43 24  1  0  0  0
 24 25  2  0  0  0
 25 26  1  0  0  0
 26 27  2  0  0  0
 27 28  1  0  0  0
 28 29  2  0  0  0
 29  1  1  0  0  0
  1  3  1  0  0  0
  3  4  2  0  0  0
  4  5  1  0  0  0
  5  6  2  0  0  0
  6  7  1  0  0  0
  6  8  1  0  0  0
  8 10  1  0  0  0
 10 12  1  0  0  0
 12 13  2  0  0  0
 13 14  1  0  0  0
 14 15  2  0  0  0
 15 16  1  0  0  0
 16 17  2  0  0  0
 17 18  1  0  0  0
 18 19  2  0  0  0
 18 20  2  0  0  0
 18 21  1  0  0  0
 21 22  1  0  0  0
 21 23  1  0  0  0
  8  9  2  0  0  0
 26 30  1  0  0  0
 30 31  1  0  0  0
 31 32  1  0  0  0
 32 33  1  0  0  0
 33 34  1  0  0  0
 34 35  1  0  0  0
 34 36  1  0  0  0
 36 37  1  0  0  0
 37 38  1  0  0  0
 38 39  1  0  0  0
 39 40  1  0  0  0
 40 41  1  0  0  0
 29 24  1  0  0  0
  9  3  1  0  0  0
 35 30  1  0  0  0
 41 36  1  0  0  0
 17 12  1  0  0  0
  1  2  1  0  0  0
 10 11  1  0  0  0
M  END
> <minimizedAffinity>
-7.36682

> <CNNscore>
0.2176574022

> <CNNaffinity>
7.3440675735

> <CNN_VS>
1.5984907150

> <CNNaffinity_variance>
0.0952888951

$$$$
[H]c1nc(N([H])c2c([H])c([H])c(N3C([H])([H])C([H])([H])C([H])([H])[C@@]([H])(N4C([H])([H])C([H])([H])OC([H])([H])C4([H])[H])C3([H])[H])c([H])c2OC([H])([H])[H])nc(N([H])c2c([H])c([H])c([H])c([H])c2S(=O)(=O)C([H])(C([H])([H])[H])C([H])([H])[H])c1Cl


 43 47  0  0  0  0  0  0  0  0999 V2000
    0.6966  -50.6819  -20.1329 N   0  0  0  0  0  0  0  0  0  0  0  0
    0.8204  -49.7515  -20.6667 H   0  0  0  0  0  0  0  0  0  0  0  0
    0.2565  -51.7522  -20.9205 C   0  0  0  0  0  0  0  0  0  0  0  0
   -0.6875  -52.5718  -20.3496 N   0  0  0  0  0  0  0  0  0  0  0  0
   -1.1639  -53.6534  -20.9755 C   0  0  0  0  0  0  0  0  0  0  0  0
   -0.7120  -53.9699  -22.2159 C   0  0  0  0  0  0  0  0  0  0  0  0
   -1.3431  -55.4112  -23.0490 Cl  0  0  0  0  0  0  0  0  0  0  0  0
    0.2510  -53.1702  -22.8446 C   0  0  0  0  0  0  0  0  0  0  0  0
    0.6582  -52.1161  -22.1351 N   0  0  0  0  0  0  0  0  0  0  0  0
    0.6546  -53.5449  -24.1321 N   0  0  0  0  0  0  0  0  0  0  0  0
    1.4588  -54.2719  -24.1701 H   0  0  0  0  0  0  0  0  0  0  0  0
    0.1739  -53.1337  -25.3905 C   0  0  0  0  0  0  0  0  0  0  0  0
   -1.1475  -53.0715  -25.7075 C   0  0  0  0  0  0  0  0  0  0  0  0
   -1.6067  -52.6367  -26.9558 C   0  0  0  0  0  0  0  0  0  0  0  0
   -0.7047  -52.2537  -27.9091 C   0  0  0  0  0  0  0  0  0  0  0  0
    0.6276  -52.3016  -27.6267 C   0  0  0  0  0  0  0  0  0  0  0  0
    1.0617  -52.7300  -26.3978 C   0  0  0  0  0  0  0  0  0  0  0  0
    2.7945  -52.7701  -26.0574 S   0  0  0  0  0  0  0  0  0  0  0  0
    3.0705  -53.4829  -24.7440 O   0  0  0  0  0  0  0  0  0  0  0  0
    3.5364  -53.3476  -27.2012 O   0  0  0  0  0  0  0  0  0  0  0  0
    3.3791  -51.0976  -25.7853 C   0  0  0  0  0  0  0  0  0  0  0  0
    4.5866  -51.2197  -24.8326 C   0  0  0  0  0  0  0  0  0  0  0  0
    2.3205  -50.3585  -25.0096 C   0  0  0  0  0  0  0  0  0  0  0  0
    2.3329  -50.8110  -18.3899 C   0  0  0  0  0  0  0  0  0  0  0  0
    2.6803  -50.8466  -17.0588 C   0  0  0  0  0  0  0  0  0  0  0  0
    1.7689  -50.7339  -16.0335 C   0  0  0  0  0  0  0  0  0  0  0  0
    0.4478  -50.5776  -16.4116 C   0  0  0  0  0  0  0  0  0  0  0  0
    0.0882  -50.5403  -17.7591 C   0  0  0  0  0  0  0  0  0  0  0  0
    1.0026  -50.6534  -18.7566 C   0  0  0  0  0  0  0  0  0  0  0  0
    2.1330  -50.7643  -14.6690 N   0  0  0  0  0  0  0  0  0  0  0  0
    2.8406  -51.9063  -14.0699 C   0  0  0  0  0  0  0  0  0  0  0  0
    3.8465  -51.3131  -13.0963 C   0  0  0  0  0  0  0  0  0  0  0  0
    4.2281  -49.9349  -13.6348 C   0  0  0  0  0  0  0  0  0  0  0  0
    3.0904  -48.9929  -13.2639 C   0  0  0  0  0  0  0  0  0  0  0  0
    1.8264  -49.6641  -13.7635 C   0  0  0  0  0  0  0  0  0  0  0  0
    3.2407  -47.6964  -13.8448 N   0  0  0  0  0  0  0  0  0  0  0  0
    2.4918  -47.5370  -15.0487 C   0  0  0  0  0  0  0  0  0  0  0  0
    1.0391  -47.1612  -14.8019 C   0  0  0  0  0  0  0  0  0  0  0  0
    0.9510  -46.0653  -13.9656 O   0  0  0  0  0  0  0  0  0  0  0  0
    1.5540  -46.3101  -12.7336 C   0  0  0  0  0  0  0  0  0  0  0  0
    3.0216  -46.5933  -12.9665 C   0  0  0  0  0  0  0  0  0  0  0  0
    4.2922  -49.9251  -19.4605 C   0  0  0  0  0  0  0  0  0  0  0  0
    3.3057  -50.9321  -19.3798 O   0  0  0  0  0  0  0  0  0  0  0  0
 42 43  1  0  0  0
 43 24  1  0  0  0
 24 25  2  0  0  0
 25 26  1  0  0  0
 26 27  2  0  0  0
 27 28  1  0  0  0
 28 29  2  0  0  0
 29  1  1  0  0  0
  1  3  1  0  0  0
  3  4  2  0  0  0
  4  5  1  0  0  0
  5  6  2  0  0  0
  6  7  1  0  0  0
  6  8  1  0  0  0
  8 10  1  0  0  0
 10 12  1  0  0  0
 12 13  2  0  0  0
 13 14  1  0  0  0
 14 15  2  0  0  0
 15 16  1  0  0  0
 16 17  2  0  0  0
 17 18  1  0  0  0
 18 19  2  0  0  0
 18 20  2  0  0  0
 18 21  1  0  0  0
 21 22  1  0  0  0
 21 23  1  0  0  0
  8  9  2  0  0  0
 26 30  1  0  0  0
 30 31  1  0  0  0
 31 32  1  0  0  0
 32 33  1  0  0  0
 33 34  1  0  0  0
 34 35  1  0  0  0
 34 36  1  0  0  0
 36 37  1  0  0  0
 37 38  1  0  0  0
 38 39  1  0  0  0
 39 40  1  0  0  0
 40 41  1  0  0  0
 29 24  1  0  0  0
  9  3  1  0  0  0
 35 30  1  0  0  0
 41 36  1  0  0  0
 17 12  1  0  0  0
  1  2  1  0  0  0
 10 11  1  0  0  0
M  END
> <minimizedAffinity>
-7.48688

> <CNNscore>
0.2138282806

> <CNNaffinity>
7.0916047096

> <CNN_VS>
1.5163856745

> <CNNaffinity_variance>
0.0987935886

$$$$
[H]c1nc(N([H])c2c([H])c([H])c(N3C([H])([H])C([H])([H])C([H])([H])[C@@]([H])(N4C([H])([H])C([H])([H])OC([H])([H])C4([H])[H])C3([H])[H])c([H])c2OC([H])([H])[H])nc(N([H])c2c([H])c([H])c([H])c([H])c2S(=O)(=O)C([H])(C([H])([H])[H])C([H])([H])[H])c1Cl


 43 47  0  0  0  0  0  0  0  0999 V2000
    1.8877  -50.3726  -24.2446 N   0  0  0  0  0  0  0  0  0  0  0  0
    1.5606  -50.3470  -25.2734 H   0  0  0  0  0  0  0  0  0  0  0  0
    1.2808  -51.3635  -23.4641 C   0  0  0  0  0  0  0  0  0  0  0  0
    0.3484  -52.1458  -24.1023 N   0  0  0  0  0  0  0  0  0  0  0  0
   -0.3357  -53.1018  -23.4646 C   0  0  0  0  0  0  0  0  0  0  0  0
   -0.1173  -53.3216  -22.1430 C   0  0  0  0  0  0  0  0  0  0  0  0
   -1.0296  -54.5919  -21.2922 Cl  0  0  0  0  0  0  0  0  0  0  0  0
    0.8208  -52.5526  -21.4424 C   0  0  0  0  0  0  0  0  0  0  0  0
    1.4483  -51.6278  -22.1713 N   0  0  0  0  0  0  0  0  0  0  0  0
    1.0094  -52.8493  -20.0869 N   0  0  0  0  0  0  0  0  0  0  0  0
    1.8496  -53.5001  -19.8697 H   0  0  0  0  0  0  0  0  0  0  0  0
    0.2847  -52.4274  -18.9552 C   0  0  0  0  0  0  0  0  0  0  0  0
   -0.8759  -53.0072  -18.5460 C   0  0  0  0  0  0  0  0  0  0  0  0
   -1.5690  -52.5896  -17.4042 C   0  0  0  0  0  0  0  0  0  0  0  0
   -1.0744  -51.5579  -16.6559 C   0  0  0  0  0  0  0  0  0  0  0  0
    0.0868  -50.9538  -17.0349 C   0  0  0  0  0  0  0  0  0  0  0  0
    0.7547  -51.3752  -18.1567 C   0  0  0  0  0  0  0  0  0  0  0  0
    2.2634  -50.5798  -18.6161 S   0  0  0  0  0  0  0  0  0  0  0  0
    3.3418  -51.6047  -18.9256 O   0  0  0  0  0  0  0  0  0  0  0  0
    2.0320  -49.6245  -19.7234 O   0  0  0  0  0  0  0  0  0  0  0  0
    2.9034  -49.6747  -17.2075 C   0  0  0  0  0  0  0  0  0  0  0  0
    3.9922  -48.7348  -17.7660 C   0  0  0  0  0  0  0  0  0  0  0  0
    3.6256  -50.6531  -16.3189 C   0  0  0  0  0  0  0  0  0  0  0  0
    4.1783  -49.6759  -24.2317 C   0  0  0  0  0  0  0  0  0  0  0  0
    5.1747  -48.8064  -23.8514 C   0  0  0  0  0  0  0  0  0  0  0  0
    4.9457  -47.6630  -23.1201 C   0  0  0  0  0  0  0  0  0  0  0  0
    3.6291  -47.4184  -22.7744 C   0  0  0  0  0  0  0  0  0  0  0  0
    2.6136  -48.2954  -23.1568 C   0  0  0  0  0  0  0  0  0  0  0  0
    2.8599  -49.4189  -23.8785 C   0  0  0  0  0  0  0  0  0  0  0  0
    5.9723  -46.7709  -22.7388 N   0  0  0  0  0  0  0  0  0  0  0  0
    5.9218  -45.3347  -23.0525 C   0  0  0  0  0  0  0  0  0  0  0  0
    6.4797  -44.6185  -21.8328 C   0  0  0  0  0  0  0  0  0  0  0  0
    6.1720  -45.4972  -20.6211 C   0  0  0  0  0  0  0  0  0  0  0  0
    7.2057  -46.6157  -20.6213 C   0  0  0  0  0  0  0  0  0  0  0  0
    7.1533  -47.2185  -22.0112 C   0  0  0  0  0  0  0  0  0  0  0  0
    6.9408  -47.6070  -19.6274 N   0  0  0  0  0  0  0  0  0  0  0  0
    7.1808  -48.9352  -20.0898 C   0  0  0  0  0  0  0  0  0  0  0  0
    8.6407  -49.3480  -19.9862 C   0  0  0  0  0  0  0  0  0  0  0  0
    9.1235  -49.1281  -18.7108 O   0  0  0  0  0  0  0  0  0  0  0  0
    9.0223  -47.7866  -18.3481 C   0  0  0  0  0  0  0  0  0  0  0  0
    7.5609  -47.3963  -18.3595 C   0  0  0  0  0  0  0  0  0  0  0  0
    5.1933  -51.8509  -24.3269 C   0  0  0  0  0  0  0  0  0  0  0  0
    4.4782  -50.8178  -24.9713 O   0  0  0  0  0  0  0  0  0  0  0  0
 42 43  1  0  0  0
 43 24  1  0  0  0
 24 25  2  0  0  0
 25 26  1  0  0  0
 26 27  2  0  0  0
 27 28  1  0  0  0
 28 29  2  0  0  0
 29  1  1  0  0  0
  1  3  1  0  0  0
  3  4  2  0  0  0
  4  5  1  0  0  0
  5  6  2  0  0  0
  6  7  1  0  0  0
  6  8  1  0  0  0
  8 10  1  0  0  0
 10 12  1  0  0  0
 12 13  2  0  0  0
 13 14  1  0  0  0
 14 15  2  0  0  0
 15 16  1  0  0  0
 16 17  2  0  0  0
 17 18  1  0  0  0
 18 19  2  0  0  0
 18 20  2  0  0  0
 18 21  1  0  0  0
 21 22  1  0  0  0
 21 23  1  0  0  0
  8  9  2  0  0  0
 26 30  1  0  0  0
 30 31  1  0  0  0
 31 32  1  0  0  0
 32 33  1  0  0  0
 33 34  1  0  0  0
 34 35  1  0  0  0
 34 36  1  0  0  0
 36 37  1  0  0  0
 37 38  1  0  0  0
 38 39  1  0  0  0
 39 40  1  0  0  0
 40 41  1  0  0  0
 29 24  1  0  0  0
  9  3  1  0  0  0
 35 30  1  0  0  0
 41 36  1  0  0  0
 17 12  1  0  0  0
  1  2  1  0  0  0
 10 11  1  0  0  0
M  END
> <minimizedAffinity>
-6.57468

> <CNNscore>
0.1776307821

> <CNNaffinity>
6.8327226639

> <CNN_VS>
1.2137018442

> <CNNaffinity_variance>
0.4009801447

$$$$
[H]c1nc(N([H])c2c([H])c([H])c(N3C([H])([H])C([H])([H])C([H])([H])[C@@]([H])(N4C([H])([H])C([H])([H])OC([H])([H])C4([H])[H])C3([H])[H])c([H])c2OC([H])([H])[H])nc(N([H])c2c([H])c([H])c([H])c([H])c2S(=O)(=O)C([H])(C([H])([H])[H])C([H])([H])[H])c1Cl


 43 47  0  0  0  0  0  0  0  0999 V2000
    0.6595  -53.0043  -22.6013 N   0  0  0  0  0  0  0  0  0  0  0  0
    0.4141  -53.8857  -23.1749 H   0  0  0  0  0  0  0  0  0  0  0  0
    0.1459  -52.9942  -21.2991 C   0  0  0  0  0  0  0  0  0  0  0  0
   -1.0976  -53.5566  -21.1378 N   0  0  0  0  0  0  0  0  0  0  0  0
   -1.7222  -53.5770  -19.9554 C   0  0  0  0  0  0  0  0  0  0  0  0
   -1.1253  -53.0281  -18.8666 C   0  0  0  0  0  0  0  0  0  0  0  0
   -1.9570  -53.0518  -17.2927 Cl  0  0  0  0  0  0  0  0  0  0  0  0
    0.1415  -52.4400  -18.9741 C   0  0  0  0  0  0  0  0  0  0  0  0
    0.6764  -52.4737  -20.1960 N   0  0  0  0  0  0  0  0  0  0  0  0
    0.7051  -51.9130  -17.8055 N   0  0  0  0  0  0  0  0  0  0  0  0
    1.5001  -52.5075  -17.3682 H   0  0  0  0  0  0  0  0  0  0  0  0
    0.4095  -50.7242  -17.1104 C   0  0  0  0  0  0  0  0  0  0  0  0
   -0.7893  -50.4785  -16.5161 C   0  0  0  0  0  0  0  0  0  0  0  0
   -1.0560  -49.3010  -15.8085 C   0  0  0  0  0  0  0  0  0  0  0  0
   -0.0835  -48.3464  -15.6987 C   0  0  0  0  0  0  0  0  0  0  0  0
    1.1305  -48.5587  -16.2803 C   0  0  0  0  0  0  0  0  0  0  0  0
    1.3764  -49.7187  -16.9703 C   0  0  0  0  0  0  0  0  0  0  0  0
    2.9636  -49.9700  -17.7036 S   0  0  0  0  0  0  0  0  0  0  0  0
    3.9502  -48.9158  -17.2302 O   0  0  0  0  0  0  0  0  0  0  0  0
    3.4323  -51.3547  -17.4683 O   0  0  0  0  0  0  0  0  0  0  0  0
    2.8432  -49.7023  -19.4718 C   0  0  0  0  0  0  0  0  0  0  0  0
    4.2943  -49.6618  -19.9947 C   0  0  0  0  0  0  0  0  0  0  0  0
    2.2911  -48.3185  -19.6932 C   0  0  0  0  0  0  0  0  0  0  0  0
    1.0959  -51.6916  -24.5553 C   0  0  0  0  0  0  0  0  0  0  0  0
    1.8637  -50.7940  -25.2614 C   0  0  0  0  0  0  0  0  0  0  0  0
    2.9944  -50.1970  -24.7518 C   0  0  0  0  0  0  0  0  0  0  0  0
    3.3349  -50.5491  -23.4584 C   0  0  0  0  0  0  0  0  0  0  0  0
    2.5611  -51.4581  -22.7364 C   0  0  0  0  0  0  0  0  0  0  0  0
    1.4485  -52.0368  -23.2570 C   0  0  0  0  0  0  0  0  0  0  0  0
    3.7743  -49.2710  -25.4795 N   0  0  0  0  0  0  0  0  0  0  0  0
    3.1851  -48.3486  -26.4622 C   0  0  0  0  0  0  0  0  0  0  0  0
    3.9244  -47.0303  -26.2966 C   0  0  0  0  0  0  0  0  0  0  0  0
    4.3750  -46.9526  -24.8385 C   0  0  0  0  0  0  0  0  0  0  0  0
    5.6125  -47.8321  -24.7183 C   0  0  0  0  0  0  0  0  0  0  0  0
    5.2180  -49.1728  -25.3057 C   0  0  0  0  0  0  0  0  0  0  0  0
    6.0514  -47.9791  -23.3668 N   0  0  0  0  0  0  0  0  0  0  0  0
    6.8501  -49.1440  -23.1658 C   0  0  0  0  0  0  0  0  0  0  0  0
    8.3127  -48.9336  -23.5250 C   0  0  0  0  0  0  0  0  0  0  0  0
    8.8193  -47.8185  -22.8861 O   0  0  0  0  0  0  0  0  0  0  0  0
    8.1151  -46.6662  -23.2296 C   0  0  0  0  0  0  0  0  0  0  0  0
    6.6777  -46.8342  -22.7894 C   0  0  0  0  0  0  0  0  0  0  0  0
   -0.5468  -51.6700  -26.3077 C   0  0  0  0  0  0  0  0  0  0  0  0
   -0.0376  -52.2615  -25.1310 O   0  0  0  0  0  0  0  0  0  0  0  0
 42 43  1  0  0  0
 43 24  1  0  0  0
 24 25  2  0  0  0
 25 26  1  0  0  0
 26 27  2  0  0  0
 27 28  1  0  0  0
 28 29  2  0  0  0
 29  1  1  0  0  0
  1  3  1  0  0  0
  3  4  2  0  0  0
  4  5  1  0  0  0
  5  6  2  0  0  0
  6  7  1  0  0  0
  6  8  1  0  0  0
  8 10  1  0  0  0
 10 12  1  0  0  0
 12 13  2  0  0  0
 13 14  1  0  0  0
 14 15  2  0  0  0
 15 16  1  0  0  0
 16 17  2  0  0  0
 17 18  1  0  0  0
 18 19  2  0  0  0
 18 20  2  0  0  0
 18 21  1  0  0  0
 21 22  1  0  0  0
 21 23  1  0  0  0
  8  9  2  0  0  0
 26 30  1  0  0  0
 30 31  1  0  0  0
 31 32  1  0  0  0
 32 33  1  0  0  0
 33 34  1  0  0  0
 34 35  1  0  0  0
 34 36  1  0  0  0
 36 37  1  0  0  0
 37 38  1  0  0  0
 38 39  1  0  0  0
 39 40  1  0  0  0
 40 41  1  0  0  0
 29 24  1  0  0  0
  9  3  1  0  0  0
 35 30  1  0  0  0
 41 36  1  0  0  0
 17 12  1  0  0  0
  1  2  1  0  0  0
 10 11  1  0  0  0
M  END
> <minimizedAffinity>
-6.51282

> <CNNscore>
0.1552071571

> <CNNaffinity>
7.2249464989

> <CNN_VS>
1.1213634014

> <CNNaffinity_variance>
0.2220954448

$$$$
[H]c1nc(N([H])c2c([H])c([H])c(N3C([H])([H])C([H])([H])C([H])([H])[C@@]([H])(N4C([H])([H])C([H])([H])OC([H])([H])C4([H])[H])C3([H])[H])c([H])c2OC([H])([H])[H])nc(N([H])c2c([H])c([H])c([H])c([H])c2S(=O)(=O)C([H])(C([H])([H])[H])C([H])([H])[H])c1Cl


 43 47  0  0  0  0  0  0  0  0999 V2000
    1.4583  -49.2865  -21.9298 N   0  0  0  0  0  0  0  0  0  0  0  0
    0.9241  -48.4600  -22.3743 H   0  0  0  0  0  0  0  0  0  0  0  0
    0.8804  -50.5419  -22.1525 C   0  0  0  0  0  0  0  0  0  0  0  0
    0.2628  -51.1211  -21.0700 N   0  0  0  0  0  0  0  0  0  0  0  0
   -0.2938  -52.3356  -21.1331 C   0  0  0  0  0  0  0  0  0  0  0  0
   -0.2571  -53.0359  -22.2954 C   0  0  0  0  0  0  0  0  0  0  0  0
   -0.9949  -54.6540  -22.3800 Cl  0  0  0  0  0  0  0  0  0  0  0  0
    0.3608  -52.4941  -23.4299 C   0  0  0  0  0  0  0  0  0  0  0  0
    0.8831  -51.2781  -23.2602 N   0  0  0  0  0  0  0  0  0  0  0  0
    0.3418  -53.2636  -24.5997 N   0  0  0  0  0  0  0  0  0  0  0  0
    0.7974  -54.2443  -24.5141 H   0  0  0  0  0  0  0  0  0  0  0  0
   -0.1856  -52.9694  -25.8721 C   0  0  0  0  0  0  0  0  0  0  0  0
   -1.5130  -52.7977  -26.1150 C   0  0  0  0  0  0  0  0  0  0  0  0
   -2.0158  -52.4813  -27.3820 C   0  0  0  0  0  0  0  0  0  0  0  0
   -1.1524  -52.3342  -28.4317 C   0  0  0  0  0  0  0  0  0  0  0  0
    0.1847  -52.4976  -28.2256 C   0  0  0  0  0  0  0  0  0  0  0  0
    0.6620  -52.8073  -26.9772 C   0  0  0  0  0  0  0  0  0  0  0  0
    2.4013  -53.0017  -26.7388 S   0  0  0  0  0  0  0  0  0  0  0  0
    2.6884  -53.7765  -25.4636 O   0  0  0  0  0  0  0  0  0  0  0  0
    3.0273  -53.6017  -27.9390 O   0  0  0  0  0  0  0  0  0  0  0  0
    3.1393  -51.3929  -26.4556 C   0  0  0  0  0  0  0  0  0  0  0  0
    3.9053  -51.5063  -25.1210 C   0  0  0  0  0  0  0  0  0  0  0  0
    2.0251  -50.4111  -26.2043 C   0  0  0  0  0  0  0  0  0  0  0  0
    3.7718  -48.6709  -21.9571 C   0  0  0  0  0  0  0  0  0  0  0  0
    4.9572  -48.3976  -21.3139 C   0  0  0  0  0  0  0  0  0  0  0  0
    5.0929  -48.3897  -19.9442 C   0  0  0  0  0  0  0  0  0  0  0  0
    3.9499  -48.6765  -19.2204 C   0  0  0  0  0  0  0  0  0  0  0  0
    2.7445  -48.9543  -19.8657 C   0  0  0  0  0  0  0  0  0  0  0  0
    2.6308  -48.9573  -21.2188 C   0  0  0  0  0  0  0  0  0  0  0  0
    6.3112  -48.1015  -19.2899 N   0  0  0  0  0  0  0  0  0  0  0  0
    7.5827  -48.7260  -19.6862 C   0  0  0  0  0  0  0  0  0  0  0  0
    8.6390  -47.6386  -19.5692 C   0  0  0  0  0  0  0  0  0  0  0  0
    7.9357  -46.3057  -19.8216 C   0  0  0  0  0  0  0  0  0  0  0  0
    7.2099  -45.9459  -18.5320 C   0  0  0  0  0  0  0  0  0  0  0  0
    6.3859  -47.1669  -18.1740 C   0  0  0  0  0  0  0  0  0  0  0  0
    6.3763  -44.7947  -18.6749 N   0  0  0  0  0  0  0  0  0  0  0  0
    5.3311  -44.7419  -17.7053 C   0  0  0  0  0  0  0  0  0  0  0  0
    5.7770  -44.1452  -16.3796 C   0  0  0  0  0  0  0  0  0  0  0  0
    6.3918  -42.9235  -16.5734 O   0  0  0  0  0  0  0  0  0  0  0  0
    7.5084  -43.0362  -17.3992 C   0  0  0  0  0  0  0  0  0  0  0  0
    7.0554  -43.5418  -18.7509 C   0  0  0  0  0  0  0  0  0  0  0  0
    3.8566  -47.4254  -24.0094 C   0  0  0  0  0  0  0  0  0  0  0  0
    3.7024  -48.6637  -23.3486 O   0  0  0  0  0  0  0  0  0  0  0  0
 42 43  1  0  0  0
 43 24  1  0  0  0
 24 25  2  0  0  0
 25 26  1  0  0  0
 26 27  2  0  0  0
 27 28  1  0  0  0
 28 29  2  0  0  0
 29  1  1  0  0  0
  1  3  1  0  0  0
  3  4  2  0  0  0
  4  5  1  0  0  0
  5  6  2  0  0  0
  6  7  1  0  0  0
  6  8  1  0  0  0
  8 10  1  0  0  0
 10 12  1  0  0  0
 12 13  2  0  0  0
 13 14  1  0  0  0
 14 15  2  0  0  0
 15 16  1  0  0  0
 16 17  2  0  0  0
 17 18  1  0  0  0
 18 19  2  0  0  0
 18 20  2  0  0  0
 18 21  1  0  0  0
 21 22  1  0  0  0
 21 23  1  0  0  0
  8  9  2  0  0  0
 26 30  1  0  0  0
 30 31  1  0  0  0
 31 32  1  0  0  0
 32 33  1  0  0  0
 33 34  1  0  0  0
 34 35  1  0  0  0
 34 36  1  0  0  0
 36 37  1  0  0  0
 37 38  1  0  0  0
 38 39  1  0  0  0
 39 40  1  0  0  0
 40 41  1  0  0  0
 29 24  1  0  0  0
  9  3  1  0  0  0
 35 30  1  0  0  0
 41 36  1  0  0  0
 17 12  1  0  0  0
  1  2  1  0  0  0
 10 11  1  0  0  0
M  END
> <minimizedAffinity>
-6.62028

> <CNNscore>
0.1353623420

> <CNNaffinity>
6.9806723595

> <CNN_VS>
0.9449201822

> <CNNaffinity_variance>
0.1049519777

$$$$
[H]c1nc(N([H])c2c([H])c([H])c(N3C([H])([H])C([H])([H])C([H])([H])[C@]([H])(N4C([H])([H])C([H])([H])N(C([H])([H])[H])C([H])([H])C4([H])[H])C3([H])[H])c([H])c2OC([H])([H])[H])nc(N([H])c2c([H])c([H])c([H])c([H])c2S(=O)(=O)C([H])(C([H])([H])[H])C([H])([H])[H])c1Cl


 44 48  0  0  0  0  0  0  0  0999 V2000
   -1.3617  -52.3202  -20.2206 N   0  0  0  0  0  0  0  0  0  0  0  0
   -2.3978  -52.1285  -20.0012 H   0  0  0  0  0  0  0  0  0  0  0  0
   -1.1440  -53.0789  -21.3865 C   0  0  0  0  0  0  0  0  0  0  0  0
   -1.4750  -54.3657  -21.5554 N   0  0  0  0  0  0  0  0  0  0  0  0
   -1.2609  -55.0546  -22.6629 C   0  0  0  0  0  0  0  0  0  0  0  0
   -0.6632  -54.4733  -23.7513 C   0  0  0  0  0  0  0  0  0  0  0  0
   -0.3739  -55.3725  -25.2212 Cl  0  0  0  0  0  0  0  0  0  0  0  0
   -0.2922  -53.1092  -23.6241 C   0  0  0  0  0  0  0  0  0  0  0  0
   -0.5558  -52.5135  -22.4627 N   0  0  0  0  0  0  0  0  0  0  0  0
    0.3009  -52.5285  -24.7484 N   0  0  0  0  0  0  0  0  0  0  0  0
    1.2395  -52.0541  -24.5768 H   0  0  0  0  0  0  0  0  0  0  0  0
   -0.2322  -52.5170  -26.0592 C   0  0  0  0  0  0  0  0  0  0  0  0
   -1.5637  -52.3535  -26.3247 C   0  0  0  0  0  0  0  0  0  0  0  0
   -2.0622  -52.3325  -27.6414 C   0  0  0  0  0  0  0  0  0  0  0  0
   -1.1736  -52.4811  -28.6747 C   0  0  0  0  0  0  0  0  0  0  0  0
    0.1692  -52.6466  -28.4472 C   0  0  0  0  0  0  0  0  0  0  0  0
    0.6388  -52.6649  -27.1599 C   0  0  0  0  0  0  0  0  0  0  0  0
    2.3398  -52.8667  -26.8168 S   0  0  0  0  0  0  0  0  0  0  0  0
    3.0561  -53.3842  -28.0042 O   0  0  0  0  0  0  0  0  0  0  0  0
    2.5792  -53.7771  -25.6481 O   0  0  0  0  0  0  0  0  0  0  0  0
    3.1040  -51.3175  -26.3841 C   0  0  0  0  0  0  0  0  0  0  0  0
    2.2083  -50.1396  -26.5241 C   0  0  0  0  0  0  0  0  0  0  0  0
    3.8155  -51.4359  -25.0680 C   0  0  0  0  0  0  0  0  0  0  0  0
    0.3666  -50.6983  -19.6924 C   0  0  0  0  0  0  0  0  0  0  0  0
    1.2864  -50.1416  -18.8344 C   0  0  0  0  0  0  0  0  0  0  0  0
    1.4853  -50.5988  -17.5563 C   0  0  0  0  0  0  0  0  0  0  0  0
    0.6947  -51.6695  -17.1743 C   0  0  0  0  0  0  0  0  0  0  0  0
   -0.2426  -52.2388  -18.0453 C   0  0  0  0  0  0  0  0  0  0  0  0
   -0.4397  -51.7838  -19.3150 C   0  0  0  0  0  0  0  0  0  0  0  0
    2.3997  -50.0867  -16.6140 N   0  0  0  0  0  0  0  0  0  0  0  0
    3.5073  -50.8264  -16.0941 C   0  0  0  0  0  0  0  0  0  0  0  0
    3.5586  -50.8514  -14.5797 C   0  0  0  0  0  0  0  0  0  0  0  0
    3.2311  -49.4838  -14.0477 C   0  0  0  0  0  0  0  0  0  0  0  0
    3.3983  -48.4801  -15.1508 C   0  0  0  0  0  0  0  0  0  0  0  0
    2.2437  -48.7231  -16.1172 C   0  0  0  0  0  0  0  0  0  0  0  0
    3.3801  -47.1164  -14.6546 N   0  0  0  0  0  0  0  0  0  0  0  0
    2.6477  -46.9965  -13.4369 C   0  0  0  0  0  0  0  0  0  0  0  0
    1.1614  -46.7224  -13.7023 C   0  0  0  0  0  0  0  0  0  0  0  0
    0.9504  -45.4386  -14.3272 N   0  0  0  0  0  0  0  0  0  0  0  0
    0.5661  -44.4226  -13.3844 C   0  0  0  0  0  0  0  0  0  0  0  0
    2.1379  -45.0693  -15.0407 C   0  0  0  0  0  0  0  0  0  0  0  0
    2.7724  -46.2865  -15.6647 C   0  0  0  0  0  0  0  0  0  0  0  0
    1.2718  -49.5907  -21.6579 C   0  0  0  0  0  0  0  0  0  0  0  0
    0.1963  -50.2063  -20.9773 O   0  0  0  0  0  0  0  0  0  0  0  0
 43 44  1  0  0  0
 44 24  1  0  0  0
 24 25  2  0  0  0
 25 26  1  0  0  0
 26 27  2  0  0  0
 27 28  1  0  0  0
 28 29  2  0  0  0
 29  1  1  0  0  0
  1  3  1  0  0  0
  3  4  2  0  0  0
  4  5  1  0  0  0
  5  6  2  0  0  0
  6  7  1  0  0  0
  6  8  1  0  0  0
  8 10  1  0  0  0
 10 12  1  0  0  0
 12 13  2  0  0  0
 13 14  1  0  0  0
 14 15  2  0  0  0
 15 16  1  0  0  0
 16 17  2  0  0  0
 17 18  1  0  0  0
 18 19  2  0  0  0
 18 20  2  0  0  0
 18 21  1  0  0  0
 21 22  1  0  0  0
 21 23  1  0  0  0
  8  9  2  0  0  0
 26 30  1  0  0  0
 30 31  1  0  0  0
 31 32  1  0  0  0
 32 33  1  0  0  0
 33 34  1  0  0  0
 34 35  1  0  0  0
 34 36  1  0  0  0
 36 37  1  0  0  0
 37 38  1  0  0  0
 38 39  1  0  0  0
 39 40  1  0  0  0
 39 41  1  0  0  0
 41 42  1  0  0  0
 29 24  1  0  0  0
  9  3  1  0  0  0
 35 30  1  0  0  0
 42 36  1  0  0  0
 17 12  1  0  0  0
  1  2  1  0  0  0
 10 11  1  0  0  0
M  END
> <minimizedAffinity>
-7.61284

> <CNNscore>
0.7044745088

> <CNNaffinity>
7.8674964905

> <CNN_VS>
5.5424509048

> <CNNaffinity_variance>
0.1276771724

$$$$
[H]c1nc(N([H])c2c([H])c([H])c(N3C([H])([H])C([H])([H])C([H])([H])[C@]([H])(N4C([H])([H])C([H])([H])N(C([H])([H])[H])C([H])([H])C4([H])[H])C3([H])[H])c([H])c2OC([H])([H])[H])nc(N([H])c2c([H])c([H])c([H])c([H])c2S(=O)(=O)C([H])(C([H])([H])[H])C([H])([H])[H])c1Cl


 44 48  0  0  0  0  0  0  0  0999 V2000
    0.6643  -53.1500  -22.8023 N   0  0  0  0  0  0  0  0  0  0  0  0
    0.5543  -54.1156  -23.2647 H   0  0  0  0  0  0  0  0  0  0  0  0
    0.1335  -53.0636  -21.5010 C   0  0  0  0  0  0  0  0  0  0  0  0
   -0.9437  -53.7198  -21.0507 N   0  0  0  0  0  0  0  0  0  0  0  0
   -1.4202  -53.6220  -19.8217 C   0  0  0  0  0  0  0  0  0  0  0  0
   -0.8188  -52.8115  -18.8939 C   0  0  0  0  0  0  0  0  0  0  0  0
   -1.4385  -52.6727  -17.2661 Cl  0  0  0  0  0  0  0  0  0  0  0  0
    0.3283  -52.0929  -19.3209 C   0  0  0  0  0  0  0  0  0  0  0  0
    0.7203  -52.2673  -20.5814 N   0  0  0  0  0  0  0  0  0  0  0  0
    0.9379  -51.2842  -18.3578 N   0  0  0  0  0  0  0  0  0  0  0  0
    0.9018  -51.6551  -17.3596 H   0  0  0  0  0  0  0  0  0  0  0  0
    1.5781  -50.0445  -18.5952 C   0  0  0  0  0  0  0  0  0  0  0  0
    1.5791  -49.4233  -19.8135 C   0  0  0  0  0  0  0  0  0  0  0  0
    2.2135  -48.1826  -20.0148 C   0  0  0  0  0  0  0  0  0  0  0  0
    2.8428  -47.5943  -18.9484 C   0  0  0  0  0  0  0  0  0  0  0  0
    2.8621  -48.1871  -17.7112 C   0  0  0  0  0  0  0  0  0  0  0  0
    2.2401  -49.3948  -17.5314 C   0  0  0  0  0  0  0  0  0  0  0  0
    2.2306  -50.1883  -15.9750 S   0  0  0  0  0  0  0  0  0  0  0  0
    3.1978  -51.3084  -15.9520 O   0  0  0  0  0  0  0  0  0  0  0  0
    0.8671  -50.6929  -15.6032 O   0  0  0  0  0  0  0  0  0  0  0  0
    2.7011  -49.0694  -14.6720 C   0  0  0  0  0  0  0  0  0  0  0  0
    1.6153  -48.7812  -13.6987 C   0  0  0  0  0  0  0  0  0  0  0  0
    4.0123  -49.4873  -14.0730 C   0  0  0  0  0  0  0  0  0  0  0  0
    0.9036  -51.9503  -24.8998 C   0  0  0  0  0  0  0  0  0  0  0  0
    1.5092  -51.0045  -25.6942 C   0  0  0  0  0  0  0  0  0  0  0  0
    2.5440  -50.2167  -25.2577 C   0  0  0  0  0  0  0  0  0  0  0  0
    2.9500  -50.4320  -23.9515 C   0  0  0  0  0  0  0  0  0  0  0  0
    2.3358  -51.3940  -23.1400 C   0  0  0  0  0  0  0  0  0  0  0  0
    1.3075  -52.1763  -23.5745 C   0  0  0  0  0  0  0  0  0  0  0  0
    3.2162  -49.2255  -26.0008 N   0  0  0  0  0  0  0  0  0  0  0  0
    3.5830  -47.9471  -25.4762 C   0  0  0  0  0  0  0  0  0  0  0  0
    3.1060  -46.7867  -26.3263 C   0  0  0  0  0  0  0  0  0  0  0  0
    3.3218  -47.1114  -27.7784 C   0  0  0  0  0  0  0  0  0  0  0  0
    4.3098  -48.2361  -27.8835 C   0  0  0  0  0  0  0  0  0  0  0  0
    3.5807  -49.4818  -27.3907 C   0  0  0  0  0  0  0  0  0  0  0  0
    4.7862  -48.4182  -29.2422 N   0  0  0  0  0  0  0  0  0  0  0  0
    6.2092  -48.4816  -29.3096 C   0  0  0  0  0  0  0  0  0  0  0  0
    6.8244  -47.0860  -29.4789 C   0  0  0  0  0  0  0  0  0  0  0  0
    6.4731  -46.4892  -30.7452 N   0  0  0  0  0  0  0  0  0  0  0  0
    7.5100  -46.6363  -31.7311 C   0  0  0  0  0  0  0  0  0  0  0  0
    5.2359  -47.0551  -31.1974 C   0  0  0  0  0  0  0  0  0  0  0  0
    4.3170  -47.3044  -30.0281 C   0  0  0  0  0  0  0  0  0  0  0  0
   -1.2767  -52.1199  -25.9612 C   0  0  0  0  0  0  0  0  0  0  0  0
   -0.1399  -52.7267  -25.3796 O   0  0  0  0  0  0  0  0  0  0  0  0
 43 44  1  0  0  0
 44 24  1  0  0  0
 24 25  2  0  0  0
 25 26  1  0  0  0
 26 27  2  0  0  0
 27 28  1  0  0  0
 28 29  2  0  0  0
 29  1  1  0  0  0
  1  3  1  0  0  0
  3  4  2  0  0  0
  4  5  1  0  0  0
  5  6  2  0  0  0
  6  7  1  0  0  0
  6  8  1  0  0  0
  8 10  1  0  0  0
 10 12  1  0  0  0
 12 13  2  0  0  0
 13 14  1  0  0  0
 14 15  2  0  0  0
 15 16  1  0  0  0
 16 17  2  0  0  0
 17 18  1  0  0  0
 18 19  2  0  0  0
 18 20  2  0  0  0
 18 21  1  0  0  0
 21 22  1  0  0  0
 21 23  1  0  0  0
  8  9  2  0  0  0
 26 30  1  0  0  0
 30 31  1  0  0  0
 31 32  1  0  0  0
 32 33  1  0  0  0
 33 34  1  0  0  0
 34 35  1  0  0  0
 34 36  1  0  0  0
 36 37  1  0  0  0
 37 38  1  0  0  0
 38 39  1  0  0  0
 39 40  1  0  0  0
 39 41  1  0  0  0
 41 42  1  0  0  0
 29 24  1  0  0  0
  9  3  1  0  0  0
 35 30  1  0  0  0
 42 36  1  0  0  0
 17 12  1  0  0  0
  1  2  1  0  0  0
 10 11  1  0  0  0
M  END
> <minimizedAffinity>
-7.19851

> <CNNscore>
0.2727442980

> <CNNaffinity>
7.3854279518

> <CNN_VS>
2.0143332481

> <CNNaffinity_variance>
0.3553866744

$$$$
[H]c1nc(N([H])c2c([H])c([H])c(N3C([H])([H])C([H])([H])C([H])([H])[C@]([H])(N4C([H])([H])C([H])([H])N(C([H])([H])[H])C([H])([H])C4([H])[H])C3([H])[H])c([H])c2OC([H])([H])[H])nc(N([H])c2c([H])c([H])c([H])c([H])c2S(=O)(=O)C([H])(C([H])([H])[H])C([H])([H])[H])c1Cl


 44 48  0  0  0  0  0  0  0  0999 V2000
    0.2577  -50.6776  -20.3702 N   0  0  0  0  0  0  0  0  0  0  0  0
   -0.1034  -49.7525  -20.7852 H   0  0  0  0  0  0  0  0  0  0  0  0
   -0.0722  -51.8212  -21.1225 C   0  0  0  0  0  0  0  0  0  0  0  0
   -0.8355  -52.8392  -20.7041 N   0  0  0  0  0  0  0  0  0  0  0  0
   -1.1317  -53.9015  -21.4326 C   0  0  0  0  0  0  0  0  0  0  0  0
   -0.6580  -54.0341  -22.7124 C   0  0  0  0  0  0  0  0  0  0  0  0
   -1.0415  -55.4333  -23.6861 Cl  0  0  0  0  0  0  0  0  0  0  0  0
    0.1570  -52.9814  -23.2045 C   0  0  0  0  0  0  0  0  0  0  0  0
    0.3906  -51.9592  -22.3838 N   0  0  0  0  0  0  0  0  0  0  0  0
    0.6178  -53.1255  -24.5160 N   0  0  0  0  0  0  0  0  0  0  0  0
    1.6083  -53.5059  -24.6137 H   0  0  0  0  0  0  0  0  0  0  0  0
   -0.1044  -52.8116  -25.6918 C   0  0  0  0  0  0  0  0  0  0  0  0
   -1.4699  -52.8405  -25.7623 C   0  0  0  0  0  0  0  0  0  0  0  0
   -2.1606  -52.5091  -26.9436 C   0  0  0  0  0  0  0  0  0  0  0  0
   -1.4279  -52.1489  -28.0449 C   0  0  0  0  0  0  0  0  0  0  0  0
   -0.0570  -52.1076  -28.0118 C   0  0  0  0  0  0  0  0  0  0  0  0
    0.6006  -52.4332  -26.8545 C   0  0  0  0  0  0  0  0  0  0  0  0
    2.3444  -52.3907  -26.7584 S   0  0  0  0  0  0  0  0  0  0  0  0
    2.9401  -52.2483  -28.1059 O   0  0  0  0  0  0  0  0  0  0  0  0
    2.9059  -53.6092  -26.0861 O   0  0  0  0  0  0  0  0  0  0  0  0
    2.9088  -51.0053  -25.7923 C   0  0  0  0  0  0  0  0  0  0  0  0
    3.9144  -51.3581  -24.7562 C   0  0  0  0  0  0  0  0  0  0  0  0
    3.2784  -49.8597  -26.6886 C   0  0  0  0  0  0  0  0  0  0  0  0
    2.3330  -50.2003  -19.2035 C   0  0  0  0  0  0  0  0  0  0  0  0
    3.0787  -50.0817  -18.0537 C   0  0  0  0  0  0  0  0  0  0  0  0
    2.5621  -50.3105  -16.8035 C   0  0  0  0  0  0  0  0  0  0  0  0
    1.2263  -50.6733  -16.7655 C   0  0  0  0  0  0  0  0  0  0  0  0
    0.4642  -50.7950  -17.9342 C   0  0  0  0  0  0  0  0  0  0  0  0
    0.9783  -50.5674  -19.1759 C   0  0  0  0  0  0  0  0  0  0  0  0
    3.2514  -50.2086  -15.5784 N   0  0  0  0  0  0  0  0  0  0  0  0
    3.6925  -51.3345  -14.8156 C   0  0  0  0  0  0  0  0  0  0  0  0
    3.2382  -51.2992  -13.3702 C   0  0  0  0  0  0  0  0  0  0  0  0
    3.3889  -49.9023  -12.8347 C   0  0  0  0  0  0  0  0  0  0  0  0
    4.3219  -49.1375  -13.7274 C   0  0  0  0  0  0  0  0  0  0  0  0
    3.5558  -48.8933  -15.0234 C   0  0  0  0  0  0  0  0  0  0  0  0
    4.7424  -47.8834  -13.1301 N   0  0  0  0  0  0  0  0  0  0  0  0
    4.9246  -46.8579  -14.1040 C   0  0  0  0  0  0  0  0  0  0  0  0
    6.3556  -46.8595  -14.6578 C   0  0  0  0  0  0  0  0  0  0  0  0
    7.3276  -46.5144  -13.6481 N   0  0  0  0  0  0  0  0  0  0  0  0
    7.7232  -45.1330  -13.7123 C   0  0  0  0  0  0  0  0  0  0  0  0
    6.7958  -46.8479  -12.3592 C   0  0  0  0  0  0  0  0  0  0  0  0
    5.9865  -48.1176  -12.4404 C   0  0  0  0  0  0  0  0  0  0  0  0
    3.6624  -50.9564  -21.0931 C   0  0  0  0  0  0  0  0  0  0  0  0
    2.8936  -49.9603  -20.4485 O   0  0  0  0  0  0  0  0  0  0  0  0
 43 44  1  0  0  0
 44 24  1  0  0  0
 24 25  2  0  0  0
 25 26  1  0  0  0
 26 27  2  0  0  0
 27 28  1  0  0  0
 28 29  2  0  0  0
 29  1  1  0  0  0
  1  3  1  0  0  0
  3  4  2  0  0  0
  4  5  1  0  0  0
  5  6  2  0  0  0
  6  7  1  0  0  0
  6  8  1  0  0  0
  8 10  1  0  0  0
 10 12  1  0  0  0
 12 13  2  0  0  0
 13 14  1  0  0  0
 14 15  2  0  0  0
 15 16  1  0  0  0
 16 17  2  0  0  0
 17 18  1  0  0  0
 18 19  2  0  0  0
 18 20  2  0  0  0
 18 21  1  0  0  0
 21 22  1  0  0  0
 21 23  1  0  0  0
  8  9  2  0  0  0
 26 30  1  0  0  0
 30 31  1  0  0  0
 31 32  1  0  0  0
 32 33  1  0  0  0
 33 34  1  0  0  0
 34 35  1  0  0  0
 34 36  1  0  0  0
 36 37  1  0  0  0
 37 38  1  0  0  0
 38 39  1  0  0  0
 39 40  1  0  0  0
 39 41  1  0  0  0
 41 42  1  0  0  0
 29 24  1  0  0  0
  9  3  1  0  0  0
 35 30  1  0  0  0
 42 36  1  0  0  0
 17 12  1  0  0  0
  1  2  1  0  0  0
 10 11  1  0  0  0
M  END
> <minimizedAffinity>
-7.40294

> <CNNscore>
0.1943836808

> <CNNaffinity>
7.2292060852

> <CNN_VS>
1.4052397013

> <CNNaffinity_variance>
0.0594032593

$$$$
[H]c1nc(N([H])c2c([H])c([H])c(N3C([H])([H])C([H])([H])C([H])([H])[C@]([H])(N4C([H])([H])C([H])([H])N(C([H])([H])[H])C([H])([H])C4([H])[H])C3([H])[H])c([H])c2OC([H])([H])[H])nc(N([H])c2c([H])c([H])c([H])c([H])c2S(=O)(=O)C([H])(C([H])([H])[H])C([H])([H])[H])c1Cl


 44 48  0  0  0  0  0  0  0  0999 V2000
    0.8515  -50.5214  -20.3277 N   0  0  0  0  0  0  0  0  0  0  0  0
    1.1023  -49.7596  -21.0454 H   0  0  0  0  0  0  0  0  0  0  0  0
    0.3433  -51.7075  -20.8910 C   0  0  0  0  0  0  0  0  0  0  0  0
   -0.5159  -52.5483  -20.3005 N   0  0  0  0  0  0  0  0  0  0  0  0
   -0.9794  -53.6556  -20.8536 C   0  0  0  0  0  0  0  0  0  0  0  0
   -0.5953  -54.0285  -22.1158 C   0  0  0  0  0  0  0  0  0  0  0  0
   -1.2000  -55.4898  -22.8585 Cl  0  0  0  0  0  0  0  0  0  0  0  0
    0.3155  -53.1707  -22.7862 C   0  0  0  0  0  0  0  0  0  0  0  0
    0.7170  -52.0815  -22.1338 N   0  0  0  0  0  0  0  0  0  0  0  0
    0.6836  -53.5576  -24.0776 N   0  0  0  0  0  0  0  0  0  0  0  0
    0.2730  -54.4820  -24.4128 H   0  0  0  0  0  0  0  0  0  0  0  0
    1.5376  -52.8419  -24.9501 C   0  0  0  0  0  0  0  0  0  0  0  0
    2.7666  -52.3725  -24.5768 C   0  0  0  0  0  0  0  0  0  0  0  0
    3.5997  -51.6754  -25.4726 C   0  0  0  0  0  0  0  0  0  0  0  0
    3.1506  -51.4705  -26.7516 C   0  0  0  0  0  0  0  0  0  0  0  0
    1.9238  -51.9272  -27.1624 C   0  0  0  0  0  0  0  0  0  0  0  0
    1.1246  -52.6039  -26.2786 C   0  0  0  0  0  0  0  0  0  0  0  0
   -0.4431  -53.2110  -26.7535 S   0  0  0  0  0  0  0  0  0  0  0  0
   -1.4682  -52.8606  -25.7449 O   0  0  0  0  0  0  0  0  0  0  0  0
   -0.4356  -54.6961  -26.9686 O   0  0  0  0  0  0  0  0  0  0  0  0
   -0.9731  -52.5038  -28.2995 C   0  0  0  0  0  0  0  0  0  0  0  0
   -0.2766  -53.0577  -29.4900 C   0  0  0  0  0  0  0  0  0  0  0  0
   -2.4717  -52.4840  -28.3782 C   0  0  0  0  0  0  0  0  0  0  0  0
    2.1504  -49.3556  -18.6395 C   0  0  0  0  0  0  0  0  0  0  0  0
    2.4087  -49.0067  -17.3342 C   0  0  0  0  0  0  0  0  0  0  0  0
    1.6451  -49.4429  -16.2812 C   0  0  0  0  0  0  0  0  0  0  0  0
    0.5833  -50.2673  -16.6134 C   0  0  0  0  0  0  0  0  0  0  0  0
    0.3175  -50.6246  -17.9412 C   0  0  0  0  0  0  0  0  0  0  0  0
    1.0767  -50.1906  -18.9869 C   0  0  0  0  0  0  0  0  0  0  0  0
    1.8360  -49.1321  -14.9198 N   0  0  0  0  0  0  0  0  0  0  0  0
    2.1126  -50.1065  -13.9108 C   0  0  0  0  0  0  0  0  0  0  0  0
    1.1739  -50.0286  -12.7235 C   0  0  0  0  0  0  0  0  0  0  0  0
    0.9511  -48.5871  -12.3585 C   0  0  0  0  0  0  0  0  0  0  0  0
    2.0384  -47.7560  -12.9744 C   0  0  0  0  0  0  0  0  0  0  0  0
    1.7588  -47.7445  -14.4737 C   0  0  0  0  0  0  0  0  0  0  0  0
    2.0612  -46.4063  -12.4414 N   0  0  0  0  0  0  0  0  0  0  0  0
    0.7564  -45.8367  -12.3625 C   0  0  0  0  0  0  0  0  0  0  0  0
    0.3800  -45.1169  -13.6644 C   0  0  0  0  0  0  0  0  0  0  0  0
    1.2149  -43.9648  -13.9072 N   0  0  0  0  0  0  0  0  0  0  0  0
    0.5875  -42.7343  -13.5060 C   0  0  0  0  0  0  0  0  0  0  0  0
    2.4710  -44.1538  -13.2423 C   0  0  0  0  0  0  0  0  0  0  0  0
    2.8849  -45.6022  -13.3093 C   0  0  0  0  0  0  0  0  0  0  0  0
    3.6906  -47.6993  -19.5305 C   0  0  0  0  0  0  0  0  0  0  0  0
    2.9472  -48.8931  -19.6755 O   0  0  0  0  0  0  0  0  0  0  0  0
 43 44  1  0  0  0
 44 24  1  0  0  0
 24 25  2  0  0  0
 25 26  1  0  0  0
 26 27  2  0  0  0
 27 28  1  0  0  0
 28 29  2  0  0  0
 29  1  1  0  0  0
  1  3  1  0  0  0
  3  4  2  0  0  0
  4  5  1  0  0  0
  5  6  2  0  0  0
  6  7  1  0  0  0
  6  8  1  0  0  0
  8 10  1  0  0  0
 10 12  1  0  0  0
 12 13  2  0  0  0
 13 14  1  0  0  0
 14 15  2  0  0  0
 15 16  1  0  0  0
 16 17  2  0  0  0
 17 18  1  0  0  0
 18 19  2  0  0  0
 18 20  2  0  0  0
 18 21  1  0  0  0
 21 22  1  0  0  0
 21 23  1  0  0  0
  8  9  2  0  0  0
 26 30  1  0  0  0
 30 31  1  0  0  0
 31 32  1  0  0  0
 32 33  1  0  0  0
 33 34  1  0  0  0
 34 35  1  0  0  0
 34 36  1  0  0  0
 36 37  1  0  0  0
 37 38  1  0  0  0
 38 39  1  0  0  0
 39 40  1  0  0  0
 39 41  1  0  0  0
 41 42  1  0  0  0
 29 24  1  0  0  0
  9  3  1  0  0  0
 35 30  1  0  0  0
 42 36  1  0  0  0
 17 12  1  0  0  0
  1  2  1  0  0  0
 10 11  1  0  0  0
M  END
> <minimizedAffinity>
-7.35948

> <CNNscore>
0.1566527933

> <CNNaffinity>
6.9723386765

> <CNN_VS>
1.0922362804

> <CNNaffinity_variance>
0.0868267640

$$$$
[H]c1nc(N([H])c2c([H])c([H])c(N3C([H])([H])C([H])([H])C([H])([H])[C@]([H])(N4C([H])([H])C([H])([H])N(C([H])([H])[H])C([H])([H])C4([H])[H])C3([H])[H])c([H])c2OC([H])([H])[H])nc(N([H])c2c([H])c([H])c([H])c([H])c2S(=O)(=O)C([H])(C([H])([H])[H])C([H])([H])[H])c1Cl


 44 48  0  0  0  0  0  0  0  0999 V2000
    0.0114  -51.0296  -20.1749 N   0  0  0  0  0  0  0  0  0  0  0  0
   -0.3898  -50.1047  -20.5519 H   0  0  0  0  0  0  0  0  0  0  0  0
   -0.3212  -52.1636  -20.9403 C   0  0  0  0  0  0  0  0  0  0  0  0
   -1.2529  -53.0732  -20.6265 N   0  0  0  0  0  0  0  0  0  0  0  0
   -1.5471  -54.1290  -21.3651 C   0  0  0  0  0  0  0  0  0  0  0  0
   -0.8920  -54.3695  -22.5453 C   0  0  0  0  0  0  0  0  0  0  0  0
   -1.2708  -55.7615  -23.5310 Cl  0  0  0  0  0  0  0  0  0  0  0  0
    0.1062  -53.4343  -22.9242 C   0  0  0  0  0  0  0  0  0  0  0  0
    0.3196  -52.4074  -22.1039 N   0  0  0  0  0  0  0  0  0  0  0  0
    0.7524  -53.6862  -24.1375 N   0  0  0  0  0  0  0  0  0  0  0  0
    0.6528  -54.6791  -24.5113 H   0  0  0  0  0  0  0  0  0  0  0  0
    1.5107  -52.7552  -24.8865 C   0  0  0  0  0  0  0  0  0  0  0  0
    2.6761  -52.2015  -24.4333 C   0  0  0  0  0  0  0  0  0  0  0  0
    3.4158  -51.2879  -25.2084 C   0  0  0  0  0  0  0  0  0  0  0  0
    2.9401  -50.9556  -26.4504 C   0  0  0  0  0  0  0  0  0  0  0  0
    1.7753  -51.4912  -26.9389 C   0  0  0  0  0  0  0  0  0  0  0  0
    1.0667  -52.3790  -26.1723 C   0  0  0  0  0  0  0  0  0  0  0  0
   -0.4188  -53.0938  -26.7504 S   0  0  0  0  0  0  0  0  0  0  0  0
   -1.5508  -52.7374  -25.8659 O   0  0  0  0  0  0  0  0  0  0  0  0
   -0.3225  -54.5868  -26.8677 O   0  0  0  0  0  0  0  0  0  0  0  0
   -0.8302  -52.5089  -28.3812 C   0  0  0  0  0  0  0  0  0  0  0  0
   -0.0324  -53.1336  -29.4687 C   0  0  0  0  0  0  0  0  0  0  0  0
   -2.3176  -52.5222  -28.5810 C   0  0  0  0  0  0  0  0  0  0  0  0
    2.1634  -50.7122  -19.0958 C   0  0  0  0  0  0  0  0  0  0  0  0
    2.9553  -50.6081  -17.9758 C   0  0  0  0  0  0  0  0  0  0  0  0
    2.4591  -50.7063  -16.7006 C   0  0  0  0  0  0  0  0  0  0  0  0
    1.0943  -50.9197  -16.6046 C   0  0  0  0  0  0  0  0  0  0  0  0
    0.2852  -51.0263  -17.7426 C   0  0  0  0  0  0  0  0  0  0  0  0
    0.7790  -50.9284  -19.0094 C   0  0  0  0  0  0  0  0  0  0  0  0
    3.1957  -50.6083  -15.5029 N   0  0  0  0  0  0  0  0  0  0  0  0
    3.7583  -51.7305  -14.8187 C   0  0  0  0  0  0  0  0  0  0  0  0
    3.3715  -51.8006  -13.3550 C   0  0  0  0  0  0  0  0  0  0  0  0
    3.4388  -50.4232  -12.7557 C   0  0  0  0  0  0  0  0  0  0  0  0
    4.2663  -49.5448  -13.6477 C   0  0  0  0  0  0  0  0  0  0  0  0
    3.4231  -49.3010  -14.8950 C   0  0  0  0  0  0  0  0  0  0  0  0
    4.6162  -48.2910  -13.0058 N   0  0  0  0  0  0  0  0  0  0  0  0
    4.5943  -47.1950  -13.9178 C   0  0  0  0  0  0  0  0  0  0  0  0
    5.9548  -47.0094  -14.6028 C   0  0  0  0  0  0  0  0  0  0  0  0
    6.9840  -46.6233  -13.6674 N   0  0  0  0  0  0  0  0  0  0  0  0
    7.2294  -45.2061  -13.6710 C   0  0  0  0  0  0  0  0  0  0  0  0
    6.6218  -47.0891  -12.3608 C   0  0  0  0  0  0  0  0  0  0  0  0
    5.9409  -48.4312  -12.4547 C   0  0  0  0  0  0  0  0  0  0  0  0
    3.7709  -51.4463  -20.7650 C   0  0  0  0  0  0  0  0  0  0  0  0
    2.7046  -50.6072  -20.3678 O   0  0  0  0  0  0  0  0  0  0  0  0
 43 44  1  0  0  0
 44 24  1  0  0  0
 24 25  2  0  0  0
 25 26  1  0  0  0
 26 27  2  0  0  0
 27 28  1  0  0  0
 28 29  2  0  0  0
 29  1  1  0  0  0
  1  3  1  0  0  0
  3  4  2  0  0  0
  4  5  1  0  0  0
  5  6  2  0  0  0
  6  7  1  0  0  0
  6  8  1  0  0  0
  8 10  1  0  0  0
 10 12  1  0  0  0
 12 13  2  0  0  0
 13 14  1  0  0  0
 14 15  2  0  0  0
 15 16  1  0  0  0
 16 17  2  0  0  0
 17 18  1  0  0  0
 18 19  2  0  0  0
 18 20  2  0  0  0
 18 21  1  0  0  0
 21 22  1  0  0  0
 21 23  1  0  0  0
  8  9  2  0  0  0
 26 30  1  0  0  0
 30 31  1  0  0  0
 31 32  1  0  0  0
 32 33  1  0  0  0
 33 34  1  0  0  0
 34 35  1  0  0  0
 34 36  1  0  0  0
 36 37  1  0  0  0
 37 38  1  0  0  0
 38 39  1  0  0  0
 39 40  1  0  0  0
 39 41  1  0  0  0
 41 42  1  0  0  0
 29 24  1  0  0  0
  9  3  1  0  0  0
 35 30  1  0  0  0
 42 36  1  0  0  0
 17 12  1  0  0  0
  1  2  1  0  0  0
 10 11  1  0  0  0
M  END
> <minimizedAffinity>
-8.13553

> <CNNscore>
0.1524364054

> <CNNaffinity>
6.9096403122

> <CNN_VS>
1.0532807112

> <CNNaffinity_variance>
0.1341495961

$$$$
[H]c1nc(N([H])c2c([H])c([H])c(N3C([H])([H])C([H])([H])C([H])([H])[C@]([H])(N4C([H])([H])C([H])([H])N(C([H])([H])[H])C([H])([H])C4([H])[H])C3([H])[H])c([H])c2OC([H])([H])[H])nc(N([H])c2c([H])c([H])c([H])c([H])c2S(=O)(=O)C([H])(C([H])([H])[H])C([H])([H])[H])c1Cl


 44 48  0  0  0  0  0  0  0  0999 V2000
    0.3505  -51.1523  -19.6017 N   0  0  0  0  0  0  0  0  0  0  0  0
   -0.0094  -51.1934  -18.5882 H   0  0  0  0  0  0  0  0  0  0  0  0
   -0.1214  -52.1887  -20.4298 C   0  0  0  0  0  0  0  0  0  0  0  0
   -1.1038  -53.0468  -20.1258 N   0  0  0  0  0  0  0  0  0  0  0  0
   -1.5293  -54.0108  -20.9237 C   0  0  0  0  0  0  0  0  0  0  0  0
   -0.9705  -54.2011  -22.1611 C   0  0  0  0  0  0  0  0  0  0  0  0
   -1.5231  -55.4716  -23.2255 Cl  0  0  0  0  0  0  0  0  0  0  0  0
    0.0762  -53.3171  -22.5323 C   0  0  0  0  0  0  0  0  0  0  0  0
    0.4241  -52.3825  -21.6500 N   0  0  0  0  0  0  0  0  0  0  0  0
    0.6232  -53.5153  -23.8030 N   0  0  0  0  0  0  0  0  0  0  0  0
    0.4439  -54.4731  -24.2340 H   0  0  0  0  0  0  0  0  0  0  0  0
    1.3786  -52.5731  -24.5409 C   0  0  0  0  0  0  0  0  0  0  0  0
    2.4677  -51.9220  -24.0310 C   0  0  0  0  0  0  0  0  0  0  0  0
    3.2078  -50.9998  -24.7954 C   0  0  0  0  0  0  0  0  0  0  0  0
    2.8117  -50.7599  -26.0857 C   0  0  0  0  0  0  0  0  0  0  0  0
    1.7248  -51.3946  -26.6317 C   0  0  0  0  0  0  0  0  0  0  0  0
    1.0148  -52.2894  -25.8748 C   0  0  0  0  0  0  0  0  0  0  0  0
   -0.3729  -53.1283  -26.5247 S   0  0  0  0  0  0  0  0  0  0  0  0
   -1.5492  -52.9570  -25.6428 O   0  0  0  0  0  0  0  0  0  0  0  0
   -0.1071  -54.5908  -26.7309 O   0  0  0  0  0  0  0  0  0  0  0  0
   -0.8268  -52.4918  -28.1248 C   0  0  0  0  0  0  0  0  0  0  0  0
   -0.0421  -53.0641  -29.2499 C   0  0  0  0  0  0  0  0  0  0  0  0
   -2.3176  -52.5218  -28.2950 C   0  0  0  0  0  0  0  0  0  0  0  0
    2.2842  -49.7926  -19.0464 C   0  0  0  0  0  0  0  0  0  0  0  0
    3.1506  -48.7547  -19.3000 C   0  0  0  0  0  0  0  0  0  0  0  0
    3.0324  -47.9358  -20.3943 C   0  0  0  0  0  0  0  0  0  0  0  0
    1.9744  -48.2187  -21.2416 C   0  0  0  0  0  0  0  0  0  0  0  0
    1.0903  -49.2745  -20.9864 C   0  0  0  0  0  0  0  0  0  0  0  0
    1.2086  -50.0877  -19.8989 C   0  0  0  0  0  0  0  0  0  0  0  0
    3.8745  -46.8568  -20.7307 N   0  0  0  0  0  0  0  0  0  0  0  0
    4.4281  -45.9493  -19.7746 C   0  0  0  0  0  0  0  0  0  0  0  0
    4.1663  -44.4932  -20.1030 C   0  0  0  0  0  0  0  0  0  0  0  0
    4.3651  -44.2715  -21.5768 C   0  0  0  0  0  0  0  0  0  0  0  0
    5.1618  -45.4132  -22.1371 C   0  0  0  0  0  0  0  0  0  0  0  0
    4.2293  -46.6200  -22.1265 C   0  0  0  0  0  0  0  0  0  0  0  0
    5.6383  -45.1384  -23.4801 N   0  0  0  0  0  0  0  0  0  0  0  0
    4.8930  -44.1008  -24.1137 C   0  0  0  0  0  0  0  0  0  0  0  0
    3.6757  -44.6618  -24.8606 C   0  0  0  0  0  0  0  0  0  0  0  0
    4.0604  -45.4996  -25.9711 N   0  0  0  0  0  0  0  0  0  0  0  0
    4.0183  -44.8027  -27.2286 C   0  0  0  0  0  0  0  0  0  0  0  0
    5.3633  -46.0401  -25.7149 C   0  0  0  0  0  0  0  0  0  0  0  0
    5.5201  -46.3527  -24.2481 C   0  0  0  0  0  0  0  0  0  0  0  0
    3.6848  -50.6720  -17.2648 C   0  0  0  0  0  0  0  0  0  0  0  0
    2.4385  -50.5973  -17.9281 O   0  0  0  0  0  0  0  0  0  0  0  0
 43 44  1  0  0  0
 44 24  1  0  0  0
 24 25  2  0  0  0
 25 26  1  0  0  0
 26 27  2  0  0  0
 27 28  1  0  0  0
 28 29  2  0  0  0
 29  1  1  0  0  0
  1  3  1  0  0  0
  3  4  2  0  0  0
  4  5  1  0  0  0
  5  6  2  0  0  0
  6  7  1  0  0  0
  6  8  1  0  0  0
  8 10  1  0  0  0
 10 12  1  0  0  0
 12 13  2  0  0  0
 13 14  1  0  0  0
 14 15  2  0  0  0
 15 16  1  0  0  0
 16 17  2  0  0  0
 17 18  1  0  0  0
 18 19  2  0  0  0
 18 20  2  0  0  0
 18 21  1  0  0  0
 21 22  1  0  0  0
 21 23  1  0  0  0
  8  9  2  0  0  0
 26 30  1  0  0  0
 30 31  1  0  0  0
 31 32  1  0  0  0
 32 33  1  0  0  0
 33 34  1  0  0  0
 34 35  1  0  0  0
 34 36  1  0  0  0
 36 37  1  0  0  0
 37 38  1  0  0  0
 38 39  1  0  0  0
 39 40  1  0  0  0
 39 41  1  0  0  0
 41 42  1  0  0  0
 29 24  1  0  0  0
  9  3  1  0  0  0
 35 30  1  0  0  0
 42 36  1  0  0  0
 17 12  1  0  0  0
  1  2  1  0  0  0
 10 11  1  0  0  0
M  END
> <minimizedAffinity>
-8.18996

> <CNNscore>
0.1330565959

> <CNNaffinity>
7.3535337448

> <CNN_VS>
0.9784361720

> <CNNaffinity_variance>
0.2765908241

$$$$
[H]c1nc(N([H])c2c([H])c([H])c(N3C([H])([H])C([H])([H])C([H])([H])[C@]([H])(N4C([H])([H])C([H])([H])N(C([H])([H])[H])C([H])([H])C4([H])[H])C3([H])[H])c([H])c2OC([H])([H])[H])nc(N([H])c2c([H])c([H])c([H])c([H])c2S(=O)(=O)C([H])(C([H])([H])[H])C([H])([H])[H])c1Cl


 44 48  0  0  0  0  0  0  0  0999 V2000
    1.2710  -53.1053  -23.6523 N   0  0  0  0  0  0  0  0  0  0  0  0
    1.0616  -54.0072  -24.2011 H   0  0  0  0  0  0  0  0  0  0  0  0
    0.6864  -53.0535  -22.3724 C   0  0  0  0  0  0  0  0  0  0  0  0
   -0.0052  -54.0405  -21.7880 N   0  0  0  0  0  0  0  0  0  0  0  0
   -0.5424  -53.9662  -20.5826 C   0  0  0  0  0  0  0  0  0  0  0  0
   -0.4212  -52.8303  -19.8246 C   0  0  0  0  0  0  0  0  0  0  0  0
   -1.1267  -52.7186  -18.2301 Cl  0  0  0  0  0  0  0  0  0  0  0  0
    0.3034  -51.7532  -20.3987 C   0  0  0  0  0  0  0  0  0  0  0  0
    0.8014  -51.9381  -21.6197 N   0  0  0  0  0  0  0  0  0  0  0  0
    0.4308  -50.6094  -19.6059 N   0  0  0  0  0  0  0  0  0  0  0  0
   -0.3354  -49.8793  -19.7296 H   0  0  0  0  0  0  0  0  0  0  0  0
    1.4693  -50.3486  -18.6805 C   0  0  0  0  0  0  0  0  0  0  0  0
    1.6489  -51.0709  -17.5332 C   0  0  0  0  0  0  0  0  0  0  0  0
    2.7009  -50.7959  -16.6386 C   0  0  0  0  0  0  0  0  0  0  0  0
    3.5604  -49.7720  -16.9420 C   0  0  0  0  0  0  0  0  0  0  0  0
    3.4123  -49.0260  -18.0839 C   0  0  0  0  0  0  0  0  0  0  0  0
    2.3833  -49.3060  -18.9445 C   0  0  0  0  0  0  0  0  0  0  0  0
    2.1545  -48.3902  -20.4144 S   0  0  0  0  0  0  0  0  0  0  0  0
    2.6992  -47.0216  -20.2693 O   0  0  0  0  0  0  0  0  0  0  0  0
    0.7113  -48.3172  -20.8192 O   0  0  0  0  0  0  0  0  0  0  0  0
    3.0017  -49.1430  -21.7880 C   0  0  0  0  0  0  0  0  0  0  0  0
    3.4326  -48.1807  -22.8357 C   0  0  0  0  0  0  0  0  0  0  0  0
    4.0644  -50.0812  -21.2953 C   0  0  0  0  0  0  0  0  0  0  0  0
    1.4956  -51.2249  -25.1722 C   0  0  0  0  0  0  0  0  0  0  0  0
    2.2496  -50.2869  -25.8383 C   0  0  0  0  0  0  0  0  0  0  0  0
    3.6129  -50.2003  -25.7122 C   0  0  0  0  0  0  0  0  0  0  0  0
    4.1950  -51.1260  -24.8627 C   0  0  0  0  0  0  0  0  0  0  0  0
    3.4304  -52.0825  -24.1830 C   0  0  0  0  0  0  0  0  0  0  0  0
    2.0758  -52.1676  -24.3088 C   0  0  0  0  0  0  0  0  0  0  0  0
    4.4583  -49.2719  -26.3523 N   0  0  0  0  0  0  0  0  0  0  0  0
    5.6367  -48.7238  -25.7566 C   0  0  0  0  0  0  0  0  0  0  0  0
    5.6792  -47.2091  -25.7864 C   0  0  0  0  0  0  0  0  0  0  0  0
    5.1991  -46.7237  -27.1260 C   0  0  0  0  0  0  0  0  0  0  0  0
    5.2629  -47.8587  -28.1058 C   0  0  0  0  0  0  0  0  0  0  0  0
    4.1493  -48.8209  -27.7057 C   0  0  0  0  0  0  0  0  0  0  0  0
    5.0909  -47.4078  -29.4745 N   0  0  0  0  0  0  0  0  0  0  0  0
    5.1646  -48.4828  -30.4086 C   0  0  0  0  0  0  0  0  0  0  0  0
    6.6083  -48.7279  -30.8673 C   0  0  0  0  0  0  0  0  0  0  0  0
    7.1331  -47.6153  -31.6221 N   0  0  0  0  0  0  0  0  0  0  0  0
    7.0607  -47.8290  -33.0426 C   0  0  0  0  0  0  0  0  0  0  0  0
    6.4372  -46.4230  -31.2354 C   0  0  0  0  0  0  0  0  0  0  0  0
    6.1318  -46.4517  -29.7590 C   0  0  0  0  0  0  0  0  0  0  0  0
   -0.4508  -51.8944  -26.4654 C   0  0  0  0  0  0  0  0  0  0  0  0
    0.1190  -51.2789  -25.3274 O   0  0  0  0  0  0  0  0  0  0  0  0
 43 44  1  0  0  0
 44 24  1  0  0  0
 24 25  2  0  0  0
 25 26  1  0  0  0
 26 27  2  0  0  0
 27 28  1  0  0  0
 28 29  2  0  0  0
 29  1  1  0  0  0
  1  3  1  0  0  0
  3  4  2  0  0  0
  4  5  1  0  0  0
  5  6  2  0  0  0
  6  7  1  0  0  0
  6  8  1  0  0  0
  8 10  1  0  0  0
 10 12  1  0  0  0
 12 13  2  0  0  0
 13 14  1  0  0  0
 14 15  2  0  0  0
 15 16  1  0  0  0
 16 17  2  0  0  0
 17 18  1  0  0  0
 18 19  2  0  0  0
 18 20  2  0  0  0
 18 21  1  0  0  0
 21 22  1  0  0  0
 21 23  1  0  0  0
  8  9  2  0  0  0
 26 30  1  0  0  0
 30 31  1  0  0  0
 31 32  1  0  0  0
 32 33  1  0  0  0
 33 34  1  0  0  0
 34 35  1  0  0  0
 34 36  1  0  0  0
 36 37  1  0  0  0
 37 38  1  0  0  0
 38 39  1  0  0  0
 39 40  1  0  0  0
 39 41  1  0  0  0
 41 42  1  0  0  0
 29 24  1  0  0  0
  9  3  1  0  0  0
 35 30  1  0  0  0
 42 36  1  0  0  0
 17 12  1  0  0  0
  1  2  1  0  0  0
 10 11  1  0  0  0
M  END
> <minimizedAffinity>
-6.72925

> <CNNscore>
0.1313781589

> <CNNaffinity>
6.9691133499

> <CNN_VS>
0.9155892730

> <CNNaffinity_variance>
0.1553555280

$$$$
[H]c1nc(N([H])c2c([H])c([H])c(N3C([H])([H])C([H])([H])C([H])([H])[C@]([H])(N4C([H])([H])C([H])([H])N(C([H])([H])[H])C([H])([H])C4([H])[H])C3([H])[H])c([H])c2OC([H])([H])[H])nc(N([H])c2c([H])c([H])c([H])c([H])c2S(=O)(=O)C([H])(C([H])([H])[H])C([H])([H])[H])c1Cl


 44 48  0  0  0  0  0  0  0  0999 V2000
    5.0916  -51.5051  -24.9671 N   0  0  0  0  0  0  0  0  0  0  0  0
    5.6878  -52.1217  -25.6173 H   0  0  0  0  0  0  0  0  0  0  0  0
    3.7105  -51.5370  -25.2393 C   0  0  0  0  0  0  0  0  0  0  0  0
    3.1550  -51.7022  -26.4468 N   0  0  0  0  0  0  0  0  0  0  0  0
    1.8534  -51.7305  -26.6744 C   0  0  0  0  0  0  0  0  0  0  0  0
    0.9542  -51.5869  -25.6494 C   0  0  0  0  0  0  0  0  0  0  0  0
   -0.7689  -51.6219  -25.9364 Cl  0  0  0  0  0  0  0  0  0  0  0  0
    1.4920  -51.4086  -24.3480 C   0  0  0  0  0  0  0  0  0  0  0  0
    2.8186  -51.3963  -24.2350 N   0  0  0  0  0  0  0  0  0  0  0  0
    0.5614  -51.2801  -23.3133 N   0  0  0  0  0  0  0  0  0  0  0  0
    0.1295  -50.3121  -23.2041 H   0  0  0  0  0  0  0  0  0  0  0  0
    0.1610  -52.3031  -22.4211 C   0  0  0  0  0  0  0  0  0  0  0  0
   -0.3780  -53.4896  -22.8356 C   0  0  0  0  0  0  0  0  0  0  0  0
   -0.7539  -54.4943  -21.9237 C   0  0  0  0  0  0  0  0  0  0  0  0
   -0.5669  -54.2601  -20.5859 C   0  0  0  0  0  0  0  0  0  0  0  0
   -0.0285  -53.0824  -20.1327 C   0  0  0  0  0  0  0  0  0  0  0  0
    0.3322  -52.1143  -21.0330 C   0  0  0  0  0  0  0  0  0  0  0  0
    1.0274  -50.6001  -20.5079 S   0  0  0  0  0  0  0  0  0  0  0  0
    0.8297  -50.4091  -19.0535 O   0  0  0  0  0  0  0  0  0  0  0  0
    0.4599  -49.4266  -21.2514 O   0  0  0  0  0  0  0  0  0  0  0  0
    2.7829  -50.5534  -20.8036 C   0  0  0  0  0  0  0  0  0  0  0  0
    3.3045  -49.2042  -21.1456 C   0  0  0  0  0  0  0  0  0  0  0  0
    3.5161  -51.2717  -19.7088 C   0  0  0  0  0  0  0  0  0  0  0  0
    6.3549  -49.5461  -24.2870 C   0  0  0  0  0  0  0  0  0  0  0  0
    7.0557  -48.8185  -23.3534 C   0  0  0  0  0  0  0  0  0  0  0  0
    7.2609  -49.2551  -22.0691 C   0  0  0  0  0  0  0  0  0  0  0  0
    6.7134  -50.4895  -21.7624 C   0  0  0  0  0  0  0  0  0  0  0  0
    5.9993  -51.2329  -22.7104 C   0  0  0  0  0  0  0  0  0  0  0  0
    5.7959  -50.7982  -23.9862 C   0  0  0  0  0  0  0  0  0  0  0  0
    7.9607  -48.5747  -21.0524 N   0  0  0  0  0  0  0  0  0  0  0  0
    9.3362  -48.1965  -21.1469 C   0  0  0  0  0  0  0  0  0  0  0  0
   10.1724  -48.6638  -19.9725 C   0  0  0  0  0  0  0  0  0  0  0  0
    9.4035  -48.4515  -18.6979 C   0  0  0  0  0  0  0  0  0  0  0  0
    8.2949  -47.4734  -18.9560 C   0  0  0  0  0  0  0  0  0  0  0  0
    7.2750  -48.2131  -19.8156 C   0  0  0  0  0  0  0  0  0  0  0  0
    7.6887  -46.9992  -17.7256 N   0  0  0  0  0  0  0  0  0  0  0  0
    6.8242  -45.8866  -17.9456 C   0  0  0  0  0  0  0  0  0  0  0  0
    7.5886  -44.5586  -17.8621 C   0  0  0  0  0  0  0  0  0  0  0  0
    8.0962  -44.3084  -16.5344 N   0  0  0  0  0  0  0  0  0  0  0  0
    7.2538  -43.4195  -15.7800 C   0  0  0  0  0  0  0  0  0  0  0  0
    8.2715  -45.5618  -15.8609 C   0  0  0  0  0  0  0  0  0  0  0  0
    8.7503  -46.6132  -16.8299 C   0  0  0  0  0  0  0  0  0  0  0  0
    7.0480  -48.1005  -26.1143 C   0  0  0  0  0  0  0  0  0  0  0  0
    6.1700  -49.0687  -25.5753 O   0  0  0  0  0  0  0  0  0  0  0  0
 43 44  1  0  0  0
 44 24  1  0  0  0
 24 25  2  0  0  0
 25 26  1  0  0  0
 26 27  2  0  0  0
 27 28  1  0  0  0
 28 29  2  0  0  0
 29  1  1  0  0  0
  1  3  1  0  0  0
  3  4  2  0  0  0
  4  5  1  0  0  0
  5  6  2  0  0  0
  6  7  1  0  0  0
  6  8  1  0  0  0
  8 10  1  0  0  0
 10 12  1  0  0  0
 12 13  2  0  0  0
 13 14  1  0  0  0
 14 15  2  0  0  0
 15 16  1  0  0  0
 16 17  2  0  0  0
 17 18  1  0  0  0
 18 19  2  0  0  0
 18 20  2  0  0  0
 18 21  1  0  0  0
 21 22  1  0  0  0
 21 23  1  0  0  0
  8  9  2  0  0  0
 26 30  1  0  0  0
 30 31  1  0  0  0
 31 32  1  0  0  0
 32 33  1  0  0  0
 33 34  1  0  0  0
 34 35  1  0  0  0
 34 36  1  0  0  0
 36 37  1  0  0  0
 37 38  1  0  0  0
 38 39  1  0  0  0
 39 40  1  0  0  0
 39 41  1  0  0  0
 41 42  1  0  0  0
 29 24  1  0  0  0
  9  3  1  0  0  0
 35 30  1  0  0  0
 42 36  1  0  0  0
 17 12  1  0  0  0
  1  2  1  0  0  0
 10 11  1  0  0  0
M  END
> <minimizedAffinity>
-6.95663

> <CNNscore>
0.1119670495

> <CNNaffinity>
6.6971535683

> <CNN_VS>
0.7498605251

> <CNNaffinity_variance>
0.5658438206

$$$$
[H]c1nc(N([H])c2c([H])c([H])c(N3C([H])([H])C([H])([H])C([H])([H])[C@]([H])(N4C([H])([H])C([H])([H])N(C([H])([H])[H])C([H])([H])C4([H])[H])C3([H])[H])c([H])c2OC([H])([H])[H])nc(N([H])c2c([H])c([H])c([H])c([H])c2S(=O)(=O)C([H])(C([H])([H])[H])C([H])([H])[H])c1Cl


 44 48  0  0  0  0  0  0  0  0999 V2000
    2.6436  -44.4308  -24.7963 N   0  0  0  0  0  0  0  0  0  0  0  0
    2.0683  -43.5279  -24.6856 H   0  0  0  0  0  0  0  0  0  0  0  0
    2.9953  -45.0497  -23.5815 C   0  0  0  0  0  0  0  0  0  0  0  0
    3.7274  -44.4972  -22.6055 N   0  0  0  0  0  0  0  0  0  0  0  0
    4.0417  -45.1007  -21.4723 C   0  0  0  0  0  0  0  0  0  0  0  0
    3.6221  -46.3801  -21.2140 C   0  0  0  0  0  0  0  0  0  0  0  0
    4.0307  -47.1896  -19.7205 Cl  0  0  0  0  0  0  0  0  0  0  0  0
    2.8420  -47.0117  -22.2176 C   0  0  0  0  0  0  0  0  0  0  0  0
    2.5858  -46.3098  -23.3197 N   0  0  0  0  0  0  0  0  0  0  0  0
    2.4095  -48.3093  -21.9308 N   0  0  0  0  0  0  0  0  0  0  0  0
    1.3658  -48.4124  -21.7421 H   0  0  0  0  0  0  0  0  0  0  0  0
    3.2246  -49.4645  -21.8687 C   0  0  0  0  0  0  0  0  0  0  0  0
    4.3825  -49.6034  -22.5830 C   0  0  0  0  0  0  0  0  0  0  0  0
    5.1798  -50.7601  -22.4891 C   0  0  0  0  0  0  0  0  0  0  0  0
    4.7691  -51.7658  -21.6529 C   0  0  0  0  0  0  0  0  0  0  0  0
    3.6139  -51.6620  -20.9200 C   0  0  0  0  0  0  0  0  0  0  0  0
    2.8488  -50.5297  -21.0225 C   0  0  0  0  0  0  0  0  0  0  0  0
    1.3726  -50.3457  -20.1065 S   0  0  0  0  0  0  0  0  0  0  0  0
    0.2734  -49.8676  -20.9747 O   0  0  0  0  0  0  0  0  0  0  0  0
    1.5385  -49.4113  -18.9440 O   0  0  0  0  0  0  0  0  0  0  0  0
    0.8445  -51.8955  -19.4063 C   0  0  0  0  0  0  0  0  0  0  0  0
    0.0152  -51.7559  -18.1807 C   0  0  0  0  0  0  0  0  0  0  0  0
    0.2760  -52.7841  -20.4739 C   0  0  0  0  0  0  0  0  0  0  0  0
    4.0153  -44.2398  -26.7909 C   0  0  0  0  0  0  0  0  0  0  0  0
    4.3293  -44.5850  -28.0848 C   0  0  0  0  0  0  0  0  0  0  0  0
    3.6121  -45.5062  -28.8053 C   0  0  0  0  0  0  0  0  0  0  0  0
    2.5373  -46.0769  -28.1446 C   0  0  0  0  0  0  0  0  0  0  0  0
    2.2147  -45.7277  -26.8273 C   0  0  0  0  0  0  0  0  0  0  0  0
    2.9281  -44.8124  -26.1121 C   0  0  0  0  0  0  0  0  0  0  0  0
    3.8658  -45.9195  -30.1287 N   0  0  0  0  0  0  0  0  0  0  0  0
    3.1079  -45.4829  -31.2596 C   0  0  0  0  0  0  0  0  0  0  0  0
    2.5810  -46.6220  -32.1090 C   0  0  0  0  0  0  0  0  0  0  0  0
    3.6511  -47.6675  -32.2591 C   0  0  0  0  0  0  0  0  0  0  0  0
    4.9783  -47.0580  -31.9135 C   0  0  0  0  0  0  0  0  0  0  0  0
    4.9609  -46.8446  -30.4034 C   0  0  0  0  0  0  0  0  0  0  0  0
    6.0873  -47.9090  -32.3036 N   0  0  0  0  0  0  0  0  0  0  0  0
    7.2602  -47.6506  -31.5349 C   0  0  0  0  0  0  0  0  0  0  0  0
    8.1194  -46.5528  -32.1763 C   0  0  0  0  0  0  0  0  0  0  0  0
    8.6591  -46.9627  -33.4506 N   0  0  0  0  0  0  0  0  0  0  0  0
   10.0183  -47.4227  -33.3519 C   0  0  0  0  0  0  0  0  0  0  0  0
    7.8056  -47.9671  -34.0145 C   0  0  0  0  0  0  0  0  0  0  0  0
    6.3627  -47.6648  -33.6975 C   0  0  0  0  0  0  0  0  0  0  0  0
    6.0901  -43.5986  -25.6984 C   0  0  0  0  0  0  0  0  0  0  0  0
    4.7662  -43.3033  -26.0972 O   0  0  0  0  0  0  0  0  0  0  0  0
 43 44  1  0  0  0
 44 24  1  0  0  0
 24 25  2  0  0  0
 25 26  1  0  0  0
 26 27  2  0  0  0
 27 28  1  0  0  0
 28 29  2  0  0  0
 29  1  1  0  0  0
  1  3  1  0  0  0
  3  4  2  0  0  0
  4  5  1  0  0  0
  5  6  2  0  0  0
  6  7  1  0  0  0
  6  8  1  0  0  0
  8 10  1  0  0  0
 10 12  1  0  0  0
 12 13  2  0  0  0
 13 14  1  0  0  0
 14 15  2  0  0  0
 15 16  1  0  0  0
 16 17  2  0  0  0
 17 18  1  0  0  0
 18 19  2  0  0  0
 18 20  2  0  0  0
 18 21  1  0  0  0
 21 22  1  0  0  0
 21 23  1  0  0  0
  8  9  2  0  0  0
 26 30  1  0  0  0
 30 31  1  0  0  0
 31 32  1  0  0  0
 32 33  1  0  0  0
 33 34  1  0  0  0
 34 35  1  0  0  0
 34 36  1  0  0  0
 36 37  1  0  0  0
 37 38  1  0  0  0
 38 39  1  0  0  0
 39 40  1  0  0  0
 39 41  1  0  0  0
 41 42  1  0  0  0
 29 24  1  0  0  0
  9  3  1  0  0  0
 35 30  1  0  0  0
 42 36  1  0  0  0
 17 12  1  0  0  0
  1  2  1  0  0  0
 10 11  1  0  0  0
M  END
> <minimizedAffinity>
-6.90095

> <CNNscore>
0.0999436229

> <CNNaffinity>
6.0786046982

> <CNN_VS>
0.6075177789

> <CNNaffinity_variance>
0.6174040437

$$$$
[H]c1nc(N([H])c2c([H])c([H])c(N3C([H])([H])C([H])([H])C([H])([H])[C@]([H])(N4C([H])([H])C([H])([H])OC([H])([H])C4([H])[H])C3([H])[H])c([H])c2OC([H])([H])[H])nc(N([H])c2c([H])c([H])c([H])c([H])c2S(=O)(=O)C([H])(C([H])([H])[H])C([H])([H])[H])c1Cl


 43 47  0  0  0  0  0  0  0  0999 V2000
    0.1024  -52.9491  -22.8004 N   0  0  0  0  0  0  0  0  0  0  0  0
   -0.3420  -53.8140  -23.2845 H   0  0  0  0  0  0  0  0  0  0  0  0
    0.9291  -52.1433  -23.5876 C   0  0  0  0  0  0  0  0  0  0  0  0
    0.8382  -52.3474  -24.9465 N   0  0  0  0  0  0  0  0  0  0  0  0
    1.5258  -51.6072  -25.8175 C   0  0  0  0  0  0  0  0  0  0  0  0
    2.3481  -50.6149  -25.3727 C   0  0  0  0  0  0  0  0  0  0  0  0
    3.2513  -49.6458  -26.5555 Cl  0  0  0  0  0  0  0  0  0  0  0  0
    2.4719  -50.3684  -23.9940 C   0  0  0  0  0  0  0  0  0  0  0  0
    1.7465  -51.1609  -23.2074 N   0  0  0  0  0  0  0  0  0  0  0  0
    3.3317  -49.3260  -23.6027 N   0  0  0  0  0  0  0  0  0  0  0  0
    2.9568  -48.3230  -23.8287 H   0  0  0  0  0  0  0  0  0  0  0  0
    4.5803  -49.3394  -22.9758 C   0  0  0  0  0  0  0  0  0  0  0  0
    5.5720  -50.2077  -23.3257 C   0  0  0  0  0  0  0  0  0  0  0  0
    6.8209  -50.2580  -22.6922 C   0  0  0  0  0  0  0  0  0  0  0  0
    7.0664  -49.3937  -21.6644 C   0  0  0  0  0  0  0  0  0  0  0  0
    6.0761  -48.5105  -21.2961 C   0  0  0  0  0  0  0  0  0  0  0  0
    4.8493  -48.4546  -21.9138 C   0  0  0  0  0  0  0  0  0  0  0  0
    3.6143  -47.3248  -21.3931 S   0  0  0  0  0  0  0  0  0  0  0  0
    4.1772  -46.1887  -20.5898 O   0  0  0  0  0  0  0  0  0  0  0  0
    2.7895  -46.8301  -22.5672 O   0  0  0  0  0  0  0  0  0  0  0  0
    2.4677  -48.1794  -20.3284 C   0  0  0  0  0  0  0  0  0  0  0  0
    3.0764  -49.5079  -19.8712 C   0  0  0  0  0  0  0  0  0  0  0  0
    1.1558  -48.4142  -21.0113 C   0  0  0  0  0  0  0  0  0  0  0  0
   -1.2726  -53.5878  -20.9032 C   0  0  0  0  0  0  0  0  0  0  0  0
   -1.6022  -53.5156  -19.5755 C   0  0  0  0  0  0  0  0  0  0  0  0
   -0.9472  -52.6825  -18.7031 C   0  0  0  0  0  0  0  0  0  0  0  0
    0.0648  -51.9163  -19.2269 C   0  0  0  0  0  0  0  0  0  0  0  0
    0.4032  -51.9836  -20.5706 C   0  0  0  0  0  0  0  0  0  0  0  0
   -0.2442  -52.8080  -21.4391 C   0  0  0  0  0  0  0  0  0  0  0  0
   -1.2809  -52.5506  -17.3377 N   0  0  0  0  0  0  0  0  0  0  0  0
   -0.3451  -51.9498  -16.3744 C   0  0  0  0  0  0  0  0  0  0  0  0
   -1.1313  -51.6102  -15.1367 C   0  0  0  0  0  0  0  0  0  0  0  0
   -2.4007  -50.8778  -15.5153 C   0  0  0  0  0  0  0  0  0  0  0  0
   -3.3390  -51.8209  -16.1830 C   0  0  0  0  0  0  0  0  0  0  0  0
   -2.5562  -52.9743  -16.7689 C   0  0  0  0  0  0  0  0  0  0  0  0
   -4.3941  -52.3383  -15.3623 N   0  0  0  0  0  0  0  0  0  0  0  0
   -4.0216  -52.2070  -13.9675 C   0  0  0  0  0  0  0  0  0  0  0  0
   -5.2258  -52.5275  -13.1149 C   0  0  0  0  0  0  0  0  0  0  0  0
   -5.6866  -53.7930  -13.4109 O   0  0  0  0  0  0  0  0  0  0  0  0
   -6.0625  -53.8918  -14.7391 C   0  0  0  0  0  0  0  0  0  0  0  0
   -4.7806  -53.6859  -15.5798 C   0  0  0  0  0  0  0  0  0  0  0  0
   -1.2045  -55.1800  -22.7218 C   0  0  0  0  0  0  0  0  0  0  0  0
   -1.9566  -54.4517  -21.7763 O   0  0  0  0  0  0  0  0  0  0  0  0
 42 43  1  0  0  0
 43 24  1  0  0  0
 24 25  2  0  0  0
 25 26  1  0  0  0
 26 27  2  0  0  0
 27 28  1  0  0  0
 28 29  2  0  0  0
 29  1  1  0  0  0
  1  3  1  0  0  0
  3  4  2  0  0  0
  4  5  1  0  0  0
  5  6  2  0  0  0
  6  7  1  0  0  0
  6  8  1  0  0  0
  8 10  1  0  0  0
 10 12  1  0  0  0
 12 13  2  0  0  0
 13 14  1  0  0  0
 14 15  2  0  0  0
 15 16  1  0  0  0
 16 17  2  0  0  0
 17 18  1  0  0  0
 18 19  2  0  0  0
 18 20  2  0  0  0
 18 21  1  0  0  0
 21 22  1  0  0  0
 21 23  1  0  0  0
  8  9  2  0  0  0
 26 30  1  0  0  0
 30 31  1  0  0  0
 31 32  1  0  0  0
 32 33  1  0  0  0
 33 34  1  0  0  0
 34 35  1  0  0  0
 34 36  1  0  0  0
 36 37  1  0  0  0
 37 38  1  0  0  0
 38 39  1  0  0  0
 39 40  1  0  0  0
 40 41  1  0  0  0
 29 24  1  0  0  0
  9  3  1  0  0  0
 35 30  1  0  0  0
 41 36  1  0  0  0
 17 12  1  0  0  0
  1  2  1  0  0  0
 10 11  1  0  0  0
M  END
> <minimizedAffinity>
-7.45938

> <CNNscore>
0.3788797855

> <CNNaffinity>
7.5995473862

> <CNN_VS>
2.8793148994

> <CNNaffinity_variance>
0.0486471988

$$$$
[H]c1nc(N([H])c2c([H])c([H])c(N3C([H])([H])C([H])([H])C([H])([H])[C@]([H])(N4C([H])([H])C([H])([H])OC([H])([H])C4([H])[H])C3([H])[H])c([H])c2OC([H])([H])[H])nc(N([H])c2c([H])c([H])c([H])c([H])c2S(=O)(=O)C([H])(C([H])([H])[H])C([H])([H])[H])c1Cl


 43 47  0  0  0  0  0  0  0  0999 V2000
    0.2564  -50.5078  -20.7026 N   0  0  0  0  0  0  0  0  0  0  0  0
    0.1225  -49.5789  -21.2495 H   0  0  0  0  0  0  0  0  0  0  0  0
    0.0046  -51.6912  -21.4015 C   0  0  0  0  0  0  0  0  0  0  0  0
   -0.7521  -52.6270  -20.7320 N   0  0  0  0  0  0  0  0  0  0  0  0
   -1.1179  -53.7760  -21.3026 C   0  0  0  0  0  0  0  0  0  0  0  0
   -0.7436  -54.0532  -22.5839 C   0  0  0  0  0  0  0  0  0  0  0  0
   -1.2450  -55.5908  -23.3174 Cl  0  0  0  0  0  0  0  0  0  0  0  0
    0.0281  -53.1270  -23.3077 C   0  0  0  0  0  0  0  0  0  0  0  0
    0.3427  -52.0125  -22.6507 N   0  0  0  0  0  0  0  0  0  0  0  0
    0.3747  -53.4718  -24.6268 N   0  0  0  0  0  0  0  0  0  0  0  0
    1.1893  -54.1984  -24.7041 H   0  0  0  0  0  0  0  0  0  0  0  0
   -0.1345  -53.0538  -25.8590 C   0  0  0  0  0  0  0  0  0  0  0  0
   -1.4661  -53.0759  -26.1527 C   0  0  0  0  0  0  0  0  0  0  0  0
   -1.9958  -52.6885  -27.3908 C   0  0  0  0  0  0  0  0  0  0  0  0
   -1.1373  -52.2655  -28.3642 C   0  0  0  0  0  0  0  0  0  0  0  0
    0.2112  -52.2377  -28.0862 C   0  0  0  0  0  0  0  0  0  0  0  0
    0.7378  -52.6150  -26.8737 C   0  0  0  0  0  0  0  0  0  0  0  0
    2.4651  -52.5807  -26.5769 S   0  0  0  0  0  0  0  0  0  0  0  0
    2.9120  -53.6810  -25.6590 O   0  0  0  0  0  0  0  0  0  0  0  0
    3.2479  -52.5790  -27.8771 O   0  0  0  0  0  0  0  0  0  0  0  0
    2.8772  -51.0465  -25.7676 C   0  0  0  0  0  0  0  0  0  0  0  0
    3.3067  -50.0099  -26.8095 C   0  0  0  0  0  0  0  0  0  0  0  0
    3.9557  -51.2376  -24.7463 C   0  0  0  0  0  0  0  0  0  0  0  0
    1.5814  -49.3325  -19.0410 C   0  0  0  0  0  0  0  0  0  0  0  0
    1.9587  -49.1012  -17.7446 C   0  0  0  0  0  0  0  0  0  0  0  0
    1.4591  -49.8319  -16.6955 C   0  0  0  0  0  0  0  0  0  0  0  0
    0.5538  -50.8161  -17.0074 C   0  0  0  0  0  0  0  0  0  0  0  0
    0.1680  -51.0565  -18.3181 C   0  0  0  0  0  0  0  0  0  0  0  0
    0.6616  -50.3346  -19.3613 C   0  0  0  0  0  0  0  0  0  0  0  0
    1.8503  -49.6507  -15.3511 N   0  0  0  0  0  0  0  0  0  0  0  0
    1.5901  -50.6793  -14.3317 C   0  0  0  0  0  0  0  0  0  0  0  0
    2.4518  -50.3585  -13.1402 C   0  0  0  0  0  0  0  0  0  0  0  0
    3.8704  -50.0795  -13.5881 C   0  0  0  0  0  0  0  0  0  0  0  0
    3.9167  -48.7810  -14.3143 C   0  0  0  0  0  0  0  0  0  0  0  0
    2.5425  -48.4638  -14.8598 C   0  0  0  0  0  0  0  0  0  0  0  0
    4.3926  -47.6594  -13.5592 N   0  0  0  0  0  0  0  0  0  0  0  0
    3.4684  -46.5534  -13.7142 C   0  0  0  0  0  0  0  0  0  0  0  0
    3.8458  -45.4691  -12.7335 C   0  0  0  0  0  0  0  0  0  0  0  0
    5.1537  -45.0841  -12.9404 O   0  0  0  0  0  0  0  0  0  0  0  0
    6.0231  -46.1458  -12.7619 C   0  0  0  0  0  0  0  0  0  0  0  0
    5.6927  -47.1803  -13.8635 C   0  0  0  0  0  0  0  0  0  0  0  0
    2.9246  -47.4639  -19.7831 C   0  0  0  0  0  0  0  0  0  0  0  0
    2.1052  -48.5681  -20.0982 O   0  0  0  0  0  0  0  0  0  0  0  0
 42 43  1  0  0  0
 43 24  1  0  0  0
 24 25  2  0  0  0
 25 26  1  0  0  0
 26 27  2  0  0  0
 27 28  1  0  0  0
 28 29  2  0  0  0
 29  1  1  0  0  0
  1  3  1  0  0  0
  3  4  2  0  0  0
  4  5  1  0  0  0
  5  6  2  0  0  0
  6  7  1  0  0  0
  6  8  1  0  0  0
  8 10  1  0  0  0
 10 12  1  0  0  0
 12 13  2  0  0  0
 13 14  1  0  0  0
 14 15  2  0  0  0
 15 16  1  0  0  0
 16 17  2  0  0  0
 17 18  1  0  0  0
 18 19  2  0  0  0
 18 20  2  0  0  0
 18 21  1  0  0  0
 21 22  1  0  0  0
 21 23  1  0  0  0
  8  9  2  0  0  0
 26 30  1  0  0  0
 30 31  1  0  0  0
 31 32  1  0  0  0
 32 33  1  0  0  0
 33 34  1  0  0  0
 34 35  1  0  0  0
 34 36  1  0  0  0
 36 37  1  0  0  0
 37 38  1  0  0  0
 38 39  1  0  0  0
 39 40  1  0  0  0
 40 41  1  0  0  0
 29 24  1  0  0  0
  9  3  1  0  0  0
 35 30  1  0  0  0
 41 36  1  0  0  0
 17 12  1  0  0  0
  1  2  1  0  0  0
 10 11  1  0  0  0
M  END
> <minimizedAffinity>
-7.12853

> <CNNscore>
0.2511205673

> <CNNaffinity>
7.1277961731

> <CNN_VS>
1.7899361849

> <CNNaffinity_variance>
0.0487452671

$$$$
[H]c1nc(N([H])c2c([H])c([H])c(N3C([H])([H])C([H])([H])C([H])([H])[C@]([H])(N4C([H])([H])C([H])([H])OC([H])([H])C4([H])[H])C3([H])[H])c([H])c2OC([H])([H])[H])nc(N([H])c2c([H])c([H])c([H])c([H])c2S(=O)(=O)C([H])(C([H])([H])[H])C([H])([H])[H])c1Cl


 43 47  0  0  0  0  0  0  0  0999 V2000
   -0.2444  -53.2491  -18.6673 N   0  0  0  0  0  0  0  0  0  0  0  0
    0.2051  -54.2068  -18.4210 H   0  0  0  0  0  0  0  0  0  0  0  0
   -1.0662  -52.6716  -17.6959 C   0  0  0  0  0  0  0  0  0  0  0  0
   -2.3668  -53.1235  -17.6729 N   0  0  0  0  0  0  0  0  0  0  0  0
   -3.2429  -52.7019  -16.7596 C   0  0  0  0  0  0  0  0  0  0  0  0
   -2.8624  -51.7982  -15.8124 C   0  0  0  0  0  0  0  0  0  0  0  0
   -4.0504  -51.2549  -14.6094 Cl  0  0  0  0  0  0  0  0  0  0  0  0
   -1.5440  -51.3096  -15.7952 C   0  0  0  0  0  0  0  0  0  0  0  0
   -0.7472  -51.7899  -16.7478 N   0  0  0  0  0  0  0  0  0  0  0  0
   -1.2151  -50.3847  -14.7876 N   0  0  0  0  0  0  0  0  0  0  0  0
   -0.9618  -50.8378  -13.8242 H   0  0  0  0  0  0  0  0  0  0  0  0
   -1.1527  -48.9888  -14.7944 C   0  0  0  0  0  0  0  0  0  0  0  0
   -2.2471  -48.2025  -15.0039 C   0  0  0  0  0  0  0  0  0  0  0  0
   -2.2027  -46.8026  -15.0431 C   0  0  0  0  0  0  0  0  0  0  0  0
   -0.9997  -46.1826  -14.8644 C   0  0  0  0  0  0  0  0  0  0  0  0
    0.1169  -46.9605  -14.6529 C   0  0  0  0  0  0  0  0  0  0  0  0
    0.0806  -48.3341  -14.6118 C   0  0  0  0  0  0  0  0  0  0  0  0
    1.5350  -49.2797  -14.3597 S   0  0  0  0  0  0  0  0  0  0  0  0
    1.4409  -50.1673  -13.1530 O   0  0  0  0  0  0  0  0  0  0  0  0
    1.9071  -50.0615  -15.6063 O   0  0  0  0  0  0  0  0  0  0  0  0
    2.8978  -48.1682  -14.0667 C   0  0  0  0  0  0  0  0  0  0  0  0
    3.7761  -48.0837  -15.3180 C   0  0  0  0  0  0  0  0  0  0  0  0
    3.7121  -48.5983  -12.8857 C   0  0  0  0  0  0  0  0  0  0  0  0
   -0.4111  -53.4112  -21.0847 C   0  0  0  0  0  0  0  0  0  0  0  0
   -0.1491  -52.9415  -22.3446 C   0  0  0  0  0  0  0  0  0  0  0  0
    0.6132  -51.8214  -22.5643 C   0  0  0  0  0  0  0  0  0  0  0  0
    1.1068  -51.1855  -21.4518 C   0  0  0  0  0  0  0  0  0  0  0  0
    0.8463  -51.6561  -20.1730 C   0  0  0  0  0  0  0  0  0  0  0  0
    0.0914  -52.7669  -19.9510 C   0  0  0  0  0  0  0  0  0  0  0  0
    0.9378  -51.3273  -23.8463 N   0  0  0  0  0  0  0  0  0  0  0  0
    2.0979  -50.4474  -24.0576 C   0  0  0  0  0  0  0  0  0  0  0  0
    2.3824  -50.4268  -25.5354 C   0  0  0  0  0  0  0  0  0  0  0  0
    2.3957  -51.8394  -26.0790 C   0  0  0  0  0  0  0  0  0  0  0  0
    1.0114  -52.3866  -26.0765 C   0  0  0  0  0  0  0  0  0  0  0  0
    0.1818  -51.6435  -25.0537 C   0  0  0  0  0  0  0  0  0  0  0  0
    0.3298  -52.3677  -27.3373 N   0  0  0  0  0  0  0  0  0  0  0  0
   -1.0790  -52.6330  -27.1219 C   0  0  0  0  0  0  0  0  0  0  0  0
   -1.8206  -52.3743  -28.4115 C   0  0  0  0  0  0  0  0  0  0  0  0
   -1.2949  -53.1545  -29.4195 O   0  0  0  0  0  0  0  0  0  0  0  0
    0.0428  -52.8686  -29.6290 C   0  0  0  0  0  0  0  0  0  0  0  0
    0.7898  -53.2662  -28.3342 C   0  0  0  0  0  0  0  0  0  0  0  0
   -2.0761  -54.9551  -21.9158 C   0  0  0  0  0  0  0  0  0  0  0  0
   -1.1976  -54.5593  -20.8855 O   0  0  0  0  0  0  0  0  0  0  0  0
 42 43  1  0  0  0
 43 24  1  0  0  0
 24 25  2  0  0  0
 25 26  1  0  0  0
 26 27  2  0  0  0
 27 28  1  0  0  0
 28 29  2  0  0  0
 29  1  1  0  0  0
  1  3  1  0  0  0
  3  4  2  0  0  0
  4  5  1  0  0  0
  5  6  2  0  0  0
  6  7  1  0  0  0
  6  8  1  0  0  0
  8 10  1  0  0  0
 10 12  1  0  0  0
 12 13  2  0  0  0
 13 14  1  0  0  0
 14 15  2  0  0  0
 15 16  1  0  0  0
 16 17  2  0  0  0
 17 18  1  0  0  0
 18 19  2  0  0  0
 18 20  2  0  0  0
 18 21  1  0  0  0
 21 22  1  0  0  0
 21 23  1  0  0  0
  8  9  2  0  0  0
 26 30  1  0  0  0
 30 31  1  0  0  0
 31 32  1  0  0  0
 32 33  1  0  0  0
 33 34  1  0  0  0
 34 35  1  0  0  0
 34 36  1  0  0  0
 36 37  1  0  0  0
 37 38  1  0  0  0
 38 39  1  0  0  0
 39 40  1  0  0  0
 40 41  1  0  0  0
 29 24  1  0  0  0
  9  3  1  0  0  0
 35 30  1  0  0  0
 41 36  1  0  0  0
 17 12  1  0  0  0
  1  2  1  0  0  0
 10 11  1  0  0  0
M  END
> <minimizedAffinity>
-7.74393

> <CNNscore>
0.2250614613

> <CNNaffinity>
7.3009300232

> <CNN_VS>
1.6431579590

> <CNNaffinity_variance>
0.0559416115

$$$$
[H]c1nc(N([H])c2c([H])c([H])c(N3C([H])([H])C([H])([H])C([H])([H])[C@]([H])(N4C([H])([H])C([H])([H])OC([H])([H])C4([H])[H])C3([H])[H])c([H])c2OC([H])([H])[H])nc(N([H])c2c([H])c([H])c([H])c([H])c2S(=O)(=O)C([H])(C([H])([H])[H])C([H])([H])[H])c1Cl


 43 47  0  0  0  0  0  0  0  0999 V2000
   -0.7437  -53.3719  -18.1660 N   0  0  0  0  0  0  0  0  0  0  0  0
   -0.2855  -54.2980  -17.8309 H   0  0  0  0  0  0  0  0  0  0  0  0
   -1.5569  -52.7038  -17.2469 C   0  0  0  0  0  0  0  0  0  0  0  0
   -2.8875  -53.0581  -17.2636 N   0  0  0  0  0  0  0  0  0  0  0  0
   -3.7643  -52.5433  -16.4000 C   0  0  0  0  0  0  0  0  0  0  0  0
   -3.3542  -51.6391  -15.4658 C   0  0  0  0  0  0  0  0  0  0  0  0
   -4.5439  -50.9706  -14.3293 Cl  0  0  0  0  0  0  0  0  0  0  0  0
   -2.0047  -51.2483  -15.4094 C   0  0  0  0  0  0  0  0  0  0  0  0
   -1.2099  -51.8170  -16.3137 N   0  0  0  0  0  0  0  0  0  0  0  0
   -1.6468  -50.3170  -14.4176 N   0  0  0  0  0  0  0  0  0  0  0  0
   -1.5058  -50.7496  -13.4223 H   0  0  0  0  0  0  0  0  0  0  0  0
   -1.4379  -48.9366  -14.4735 C   0  0  0  0  0  0  0  0  0  0  0  0
   -2.3925  -48.0629  -14.9038 C   0  0  0  0  0  0  0  0  0  0  0  0
   -2.1954  -46.6786  -14.9949 C   0  0  0  0  0  0  0  0  0  0  0  0
   -0.9814  -46.1675  -14.6365 C   0  0  0  0  0  0  0  0  0  0  0  0
   -0.0045  -47.0348  -14.2008 C   0  0  0  0  0  0  0  0  0  0  0  0
   -0.1912  -48.3936  -14.1076 C   0  0  0  0  0  0  0  0  0  0  0  0
    1.0923  -49.4576  -13.5659 S   0  0  0  0  0  0  0  0  0  0  0  0
    2.1852  -48.7202  -12.8485 O   0  0  0  0  0  0  0  0  0  0  0  0
    0.5447  -50.6025  -12.7336 O   0  0  0  0  0  0  0  0  0  0  0  0
    1.8454  -50.2191  -14.9913 C   0  0  0  0  0  0  0  0  0  0  0  0
    2.4157  -51.5872  -14.6075 C   0  0  0  0  0  0  0  0  0  0  0  0
    2.9180  -49.3515  -15.5740 C   0  0  0  0  0  0  0  0  0  0  0  0
    0.6434  -52.1554  -19.7453 C   0  0  0  0  0  0  0  0  0  0  0  0
    1.0129  -51.8317  -21.0241 C   0  0  0  0  0  0  0  0  0  0  0  0
    0.3613  -52.3329  -22.1233 C   0  0  0  0  0  0  0  0  0  0  0  0
   -0.6893  -53.1831  -21.8808 C   0  0  0  0  0  0  0  0  0  0  0  0
   -1.0696  -53.5146  -20.5885 C   0  0  0  0  0  0  0  0  0  0  0  0
   -0.4265  -53.0192  -19.4958 C   0  0  0  0  0  0  0  0  0  0  0  0
    0.6861  -51.9946  -23.4549 N   0  0  0  0  0  0  0  0  0  0  0  0
    1.9626  -51.3448  -23.7912 C   0  0  0  0  0  0  0  0  0  0  0  0
    2.1567  -51.4789  -25.2776 C   0  0  0  0  0  0  0  0  0  0  0  0
    1.8997  -52.9078  -25.7057 C   0  0  0  0  0  0  0  0  0  0  0  0
    0.4459  -53.2070  -25.5935 C   0  0  0  0  0  0  0  0  0  0  0  0
   -0.1838  -52.2614  -24.5957 C   0  0  0  0  0  0  0  0  0  0  0  0
   -0.2978  -53.1611  -26.8180 N   0  0  0  0  0  0  0  0  0  0  0  0
    0.5992  -52.8344  -27.9089 C   0  0  0  0  0  0  0  0  0  0  0  0
   -0.1385  -53.0244  -29.2126 C   0  0  0  0  0  0  0  0  0  0  0  0
   -1.2757  -52.2447  -29.2260 O   0  0  0  0  0  0  0  0  0  0  0  0
   -2.1317  -52.5888  -28.1945 C   0  0  0  0  0  0  0  0  0  0  0  0
   -1.3924  -52.2605  -26.8759 C   0  0  0  0  0  0  0  0  0  0  0  0
    2.6104  -51.0786  -18.8410 C   0  0  0  0  0  0  0  0  0  0  0  0
    1.3290  -51.6313  -18.6355 O   0  0  0  0  0  0  0  0  0  0  0  0
 42 43  1  0  0  0
 43 24  1  0  0  0
 24 25  2  0  0  0
 25 26  1  0  0  0
 26 27  2  0  0  0
 27 28  1  0  0  0
 28 29  2  0  0  0
 29  1  1  0  0  0
  1  3  1  0  0  0
  3  4  2  0  0  0
  4  5  1  0  0  0
  5  6  2  0  0  0
  6  7  1  0  0  0
  6  8  1  0  0  0
  8 10  1  0  0  0
 10 12  1  0  0  0
 12 13  2  0  0  0
 13 14  1  0  0  0
 14 15  2  0  0  0
 15 16  1  0  0  0
 16 17  2  0  0  0
 17 18  1  0  0  0
 18 19  2  0  0  0
 18 20  2  0  0  0
 18 21  1  0  0  0
 21 22  1  0  0  0
 21 23  1  0  0  0
  8  9  2  0  0  0
 26 30  1  0  0  0
 30 31  1  0  0  0
 31 32  1  0  0  0
 32 33  1  0  0  0
 33 34  1  0  0  0
 34 35  1  0  0  0
 34 36  1  0  0  0
 36 37  1  0  0  0
 37 38  1  0  0  0
 38 39  1  0  0  0
 39 40  1  0  0  0
 40 41  1  0  0  0
 29 24  1  0  0  0
  9  3  1  0  0  0
 35 30  1  0  0  0
 41 36  1  0  0  0
 17 12  1  0  0  0
  1  2  1  0  0  0
 10 11  1  0  0  0
M  END
> <minimizedAffinity>
-8.26474

> <CNNscore>
0.2002616823

> <CNNaffinity>
7.1981382370

> <CNN_VS>
1.4415112734

> <CNNaffinity_variance>
0.1757731438

$$$$
[H]c1nc(N([H])c2c([H])c([H])c(N3C([H])([H])C([H])([H])C([H])([H])[C@]([H])(N4C([H])([H])C([H])([H])OC([H])([H])C4([H])[H])C3([H])[H])c([H])c2OC([H])([H])[H])nc(N([H])c2c([H])c([H])c([H])c([H])c2S(=O)(=O)C([H])(C([H])([H])[H])C([H])([H])[H])c1Cl


 43 47  0  0  0  0  0  0  0  0999 V2000
   -1.2470  -53.4113  -18.5707 N   0  0  0  0  0  0  0  0  0  0  0  0
   -1.5655  -54.4320  -18.7624 H   0  0  0  0  0  0  0  0  0  0  0  0
   -1.8213  -52.7694  -17.4705 C   0  0  0  0  0  0  0  0  0  0  0  0
   -3.1044  -53.1598  -17.1580 N   0  0  0  0  0  0  0  0  0  0  0  0
   -3.7503  -52.6726  -16.0973 C   0  0  0  0  0  0  0  0  0  0  0  0
   -3.1427  -51.7613  -15.2855 C   0  0  0  0  0  0  0  0  0  0  0  0
   -4.0272  -51.1300  -13.8808 Cl  0  0  0  0  0  0  0  0  0  0  0  0
   -1.8324  -51.3340  -15.5639 C   0  0  0  0  0  0  0  0  0  0  0  0
   -1.2747  -51.8772  -16.6440 N   0  0  0  0  0  0  0  0  0  0  0  0
   -1.2617  -50.3974  -14.6829 N   0  0  0  0  0  0  0  0  0  0  0  0
   -0.8128  -50.8362  -13.7866 H   0  0  0  0  0  0  0  0  0  0  0  0
   -1.1637  -49.0050  -14.7457 C   0  0  0  0  0  0  0  0  0  0  0  0
   -2.2519  -48.1943  -14.8817 C   0  0  0  0  0  0  0  0  0  0  0  0
   -2.1748  -46.7983  -14.9753 C   0  0  0  0  0  0  0  0  0  0  0  0
   -0.9445  -46.2083  -14.9305 C   0  0  0  0  0  0  0  0  0  0  0  0
    0.1661  -47.0112  -14.7949 C   0  0  0  0  0  0  0  0  0  0  0  0
    0.0980  -48.3810  -14.7012 C   0  0  0  0  0  0  0  0  0  0  0  0
    1.5442  -49.3600  -14.5503 S   0  0  0  0  0  0  0  0  0  0  0  0
    2.7489  -48.5498  -14.1694 O   0  0  0  0  0  0  0  0  0  0  0  0
    1.3252  -50.5240  -13.6013 O   0  0  0  0  0  0  0  0  0  0  0  0
    1.9070  -50.0946  -16.1337 C   0  0  0  0  0  0  0  0  0  0  0  0
    3.1927  -50.9207  -16.0396 C   0  0  0  0  0  0  0  0  0  0  0  0
    2.0318  -49.0553  -17.2047 C   0  0  0  0  0  0  0  0  0  0  0  0
   -0.2762  -53.4246  -20.7967 C   0  0  0  0  0  0  0  0  0  0  0  0
    0.5946  -52.9354  -21.7342 C   0  0  0  0  0  0  0  0  0  0  0  0
    1.4852  -51.9299  -21.4517 C   0  0  0  0  0  0  0  0  0  0  0  0
    1.4637  -51.4306  -20.1728 C   0  0  0  0  0  0  0  0  0  0  0  0
    0.5852  -51.9219  -19.2180 C   0  0  0  0  0  0  0  0  0  0  0  0
   -0.2990  -52.9194  -19.4940 C   0  0  0  0  0  0  0  0  0  0  0  0
    2.4238  -51.4246  -22.3774 N   0  0  0  0  0  0  0  0  0  0  0  0
    2.8214  -52.1969  -23.5650 C   0  0  0  0  0  0  0  0  0  0  0  0
    3.5046  -51.2460  -24.5107 C   0  0  0  0  0  0  0  0  0  0  0  0
    2.6759  -49.9892  -24.6685 C   0  0  0  0  0  0  0  0  0  0  0  0
    2.7243  -49.1998  -23.4075 C   0  0  0  0  0  0  0  0  0  0  0  0
    3.0626  -50.1183  -22.2550 C   0  0  0  0  0  0  0  0  0  0  0  0
    3.6273  -48.0866  -23.4015 N   0  0  0  0  0  0  0  0  0  0  0  0
    4.8432  -48.4625  -22.7075 C   0  0  0  0  0  0  0  0  0  0  0  0
    5.8717  -47.3766  -22.9149 C   0  0  0  0  0  0  0  0  0  0  0  0
    5.3746  -46.1692  -22.4717 O   0  0  0  0  0  0  0  0  0  0  0  0
    4.2300  -45.8139  -23.1636 C   0  0  0  0  0  0  0  0  0  0  0  0
    3.1589  -46.8776  -22.8258 C   0  0  0  0  0  0  0  0  0  0  0  0
   -1.2725  -54.8761  -22.4542 C   0  0  0  0  0  0  0  0  0  0  0  0
   -1.1814  -54.4532  -21.1116 O   0  0  0  0  0  0  0  0  0  0  0  0
 42 43  1  0  0  0
 43 24  1  0  0  0
 24 25  2  0  0  0
 25 26  1  0  0  0
 26 27  2  0  0  0
 27 28  1  0  0  0
 28 29  2  0  0  0
 29  1  1  0  0  0
  1  3  1  0  0  0
  3  4  2  0  0  0
  4  5  1  0  0  0
  5  6  2  0  0  0
  6  7  1  0  0  0
  6  8  1  0  0  0
  8 10  1  0  0  0
 10 12  1  0  0  0
 12 13  2  0  0  0
 13 14  1  0  0  0
 14 15  2  0  0  0
 15 16  1  0  0  0
 16 17  2  0  0  0
 17 18  1  0  0  0
 18 19  2  0  0  0
 18 20  2  0  0  0
 18 21  1  0  0  0
 21 22  1  0  0  0
 21 23  1  0  0  0
  8  9  2  0  0  0
 26 30  1  0  0  0
 30 31  1  0  0  0
 31 32  1  0  0  0
 32 33  1  0  0  0
 33 34  1  0  0  0
 34 35  1  0  0  0
 34 36  1  0  0  0
 36 37  1  0  0  0
 37 38  1  0  0  0
 38 39  1  0  0  0
 39 40  1  0  0  0
 40 41  1  0  0  0
 29 24  1  0  0  0
  9  3  1  0  0  0
 35 30  1  0  0  0
 41 36  1  0  0  0
 17 12  1  0  0  0
  1  2  1  0  0  0
 10 11  1  0  0  0
M  END
> <minimizedAffinity>
-7.11892

> <CNNscore>
0.1764467508

> <CNNaffinity>
7.2140297890

> <CNN_VS>
1.2728921175

> <CNNaffinity_variance>
0.0957201347

$$$$
[H]c1nc(N([H])c2c([H])c([H])c(N3C([H])([H])C([H])([H])C([H])([H])[C@]([H])(N4C([H])([H])C([H])([H])OC([H])([H])C4([H])[H])C3([H])[H])c([H])c2OC([H])([H])[H])nc(N([H])c2c([H])c([H])c([H])c([H])c2S(=O)(=O)C([H])(C([H])([H])[H])C([H])([H])[H])c1Cl


 43 47  0  0  0  0  0  0  0  0999 V2000
   -1.5901  -53.3244  -18.1366 N   0  0  0  0  0  0  0  0  0  0  0  0
   -1.9672  -54.3158  -18.3708 H   0  0  0  0  0  0  0  0  0  0  0  0
   -2.1832  -52.6646  -17.0571 C   0  0  0  0  0  0  0  0  0  0  0  0
   -3.4724  -53.0484  -16.7620 N   0  0  0  0  0  0  0  0  0  0  0  0
   -4.1367  -52.5439  -15.7209 C   0  0  0  0  0  0  0  0  0  0  0  0
   -3.5425  -51.6209  -14.9125 C   0  0  0  0  0  0  0  0  0  0  0  0
   -4.4513  -50.9666  -13.5341 Cl  0  0  0  0  0  0  0  0  0  0  0  0
   -2.2267  -51.1997  -15.1737 C   0  0  0  0  0  0  0  0  0  0  0  0
   -1.6503  -51.7603  -16.2349 N   0  0  0  0  0  0  0  0  0  0  0  0
   -1.6705  -50.2501  -14.2972 N   0  0  0  0  0  0  0  0  0  0  0  0
   -1.3692  -50.6545  -13.3260 H   0  0  0  0  0  0  0  0  0  0  0  0
   -1.4324  -48.8810  -14.4428 C   0  0  0  0  0  0  0  0  0  0  0  0
   -2.4144  -47.9918  -14.7663 C   0  0  0  0  0  0  0  0  0  0  0  0
   -2.1930  -46.6198  -14.9452 C   0  0  0  0  0  0  0  0  0  0  0  0
   -0.9251  -46.1379  -14.7908 C   0  0  0  0  0  0  0  0  0  0  0  0
    0.0799  -47.0214  -14.4655 C   0  0  0  0  0  0  0  0  0  0  0  0
   -0.1301  -48.3682  -14.2872 C   0  0  0  0  0  0  0  0  0  0  0  0
    1.1880  -49.4547  -13.8935 S   0  0  0  0  0  0  0  0  0  0  0  0
    2.3988  -48.7280  -13.3849 O   0  0  0  0  0  0  0  0  0  0  0  0
    0.7387  -50.5413  -12.9340 O   0  0  0  0  0  0  0  0  0  0  0  0
    1.6928  -50.3045  -15.3773 C   0  0  0  0  0  0  0  0  0  0  0  0
    2.9672  -51.1086  -15.1060 C   0  0  0  0  0  0  0  0  0  0  0  0
    1.9098  -49.3490  -16.5097 C   0  0  0  0  0  0  0  0  0  0  0  0
   -0.4643  -53.3969  -20.2872 C   0  0  0  0  0  0  0  0  0  0  0  0
    0.4938  -52.9552  -21.1610 C   0  0  0  0  0  0  0  0  0  0  0  0
    1.4091  -51.9916  -20.8178 C   0  0  0  0  0  0  0  0  0  0  0  0
    1.3200  -51.4843  -19.5449 C   0  0  0  0  0  0  0  0  0  0  0  0
    0.3530  -51.9277  -18.6544 C   0  0  0  0  0  0  0  0  0  0  0  0
   -0.5560  -52.8836  -18.9907 C   0  0  0  0  0  0  0  0  0  0  0  0
    2.4346  -51.5370  -21.6749 N   0  0  0  0  0  0  0  0  0  0  0  0
    3.7127  -51.0379  -21.1437 C   0  0  0  0  0  0  0  0  0  0  0  0
    4.6928  -51.0088  -22.2856 C   0  0  0  0  0  0  0  0  0  0  0  0
    4.6477  -52.3207  -23.0391 C   0  0  0  0  0  0  0  0  0  0  0  0
    3.3639  -52.4221  -23.7855 C   0  0  0  0  0  0  0  0  0  0  0  0
    2.3330  -51.5306  -23.1306 C   0  0  0  0  0  0  0  0  0  0  0  0
    3.4287  -52.1162  -25.1843 N   0  0  0  0  0  0  0  0  0  0  0  0
    2.9533  -50.7637  -25.3993 C   0  0  0  0  0  0  0  0  0  0  0  0
    3.2493  -50.3701  -26.8267 C   0  0  0  0  0  0  0  0  0  0  0  0
    2.6627  -51.2690  -27.6923 O   0  0  0  0  0  0  0  0  0  0  0  0
    3.1482  -52.5491  -27.4907 C   0  0  0  0  0  0  0  0  0  0  0  0
    2.7156  -52.9687  -26.0660 C   0  0  0  0  0  0  0  0  0  0  0  0
   -1.5093  -54.7041  -22.0324 C   0  0  0  0  0  0  0  0  0  0  0  0
   -1.3928  -54.3831  -20.6637 O   0  0  0  0  0  0  0  0  0  0  0  0
 42 43  1  0  0  0
 43 24  1  0  0  0
 24 25  2  0  0  0
 25 26  1  0  0  0
 26 27  2  0  0  0
 27 28  1  0  0  0
 28 29  2  0  0  0
 29  1  1  0  0  0
  1  3  1  0  0  0
  3  4  2  0  0  0
  4  5  1  0  0  0
  5  6  2  0  0  0
  6  7  1  0  0  0
  6  8  1  0  0  0
  8 10  1  0  0  0
 10 12  1  0  0  0
 12 13  2  0  0  0
 13 14  1  0  0  0
 14 15  2  0  0  0
 15 16  1  0  0  0
 16 17  2  0  0  0
 17 18  1  0  0  0
 18 19  2  0  0  0
 18 20  2  0  0  0
 18 21  1  0  0  0
 21 22  1  0  0  0
 21 23  1  0  0  0
  8  9  2  0  0  0
 26 30  1  0  0  0
 30 31  1  0  0  0
 31 32  1  0  0  0
 32 33  1  0  0  0
 33 34  1  0  0  0
 34 35  1  0  0  0
 34 36  1  0  0  0
 36 37  1  0  0  0
 37 38  1  0  0  0
 38 39  1  0  0  0
 39 40  1  0  0  0
 40 41  1  0  0  0
 29 24  1  0  0  0
  9  3  1  0  0  0
 35 30  1  0  0  0
 41 36  1  0  0  0
 17 12  1  0  0  0
  1  2  1  0  0  0
 10 11  1  0  0  0
M  END
> <minimizedAffinity>
-7.59069

> <CNNscore>
0.1710534245

> <CNNaffinity>
7.2081222534

> <CNN_VS>
1.2329740524

> <CNNaffinity_variance>
0.0930090100

$$$$
[H]c1nc(N([H])c2c([H])c([H])c(N3C([H])([H])C([H])([H])C([H])([H])[C@]([H])(N4C([H])([H])C([H])([H])OC([H])([H])C4([H])[H])C3([H])[H])c([H])c2OC([H])([H])[H])nc(N([H])c2c([H])c([H])c([H])c([H])c2S(=O)(=O)C([H])(C([H])([H])[H])C([H])([H])[H])c1Cl


 43 47  0  0  0  0  0  0  0  0999 V2000
   -0.6118  -53.4260  -18.6841 N   0  0  0  0  0  0  0  0  0  0  0  0
   -0.4777  -54.4993  -18.5843 H   0  0  0  0  0  0  0  0  0  0  0  0
   -1.0771  -52.7428  -17.5576 C   0  0  0  0  0  0  0  0  0  0  0  0
   -2.4310  -52.8362  -17.3234 N   0  0  0  0  0  0  0  0  0  0  0  0
   -3.0001  -52.2831  -16.2512 C   0  0  0  0  0  0  0  0  0  0  0  0
   -2.2397  -51.6012  -15.3482 C   0  0  0  0  0  0  0  0  0  0  0  0
   -3.0249  -50.8752  -13.9303 Cl  0  0  0  0  0  0  0  0  0  0  0  0
   -0.8526  -51.4808  -15.5445 C   0  0  0  0  0  0  0  0  0  0  0  0
   -0.3811  -52.0658  -16.6438 N   0  0  0  0  0  0  0  0  0  0  0  0
   -0.1257  -50.7703  -14.5720 N   0  0  0  0  0  0  0  0  0  0  0  0
   -0.7030  -50.0013  -14.0496 H   0  0  0  0  0  0  0  0  0  0  0  0
    1.2030  -50.8692  -14.1512 C   0  0  0  0  0  0  0  0  0  0  0  0
    1.6531  -51.8866  -13.3624 C   0  0  0  0  0  0  0  0  0  0  0  0
    2.9736  -51.9904  -12.9054 C   0  0  0  0  0  0  0  0  0  0  0  0
    3.8661  -51.0217  -13.2637 C   0  0  0  0  0  0  0  0  0  0  0  0
    3.4293  -49.9856  -14.0589 C   0  0  0  0  0  0  0  0  0  0  0  0
    2.1359  -49.8780  -14.5119 C   0  0  0  0  0  0  0  0  0  0  0  0
    1.6248  -48.5274  -15.5056 S   0  0  0  0  0  0  0  0  0  0  0  0
    1.1624  -48.9586  -16.8669 O   0  0  0  0  0  0  0  0  0  0  0  0
    0.5800  -47.6855  -14.7963 O   0  0  0  0  0  0  0  0  0  0  0  0
    3.0182  -47.4452  -15.7626 C   0  0  0  0  0  0  0  0  0  0  0  0
    2.5614  -45.9856  -15.6898 C   0  0  0  0  0  0  0  0  0  0  0  0
    3.6893  -47.7171  -17.0735 C   0  0  0  0  0  0  0  0  0  0  0  0
    0.8984  -52.2054  -20.1426 C   0  0  0  0  0  0  0  0  0  0  0  0
    1.2702  -51.7442  -21.3778 C   0  0  0  0  0  0  0  0  0  0  0  0
    0.5068  -51.9566  -22.4986 C   0  0  0  0  0  0  0  0  0  0  0  0
   -0.6593  -52.6604  -22.3241 C   0  0  0  0  0  0  0  0  0  0  0  0
   -1.0425  -53.1295  -21.0760 C   0  0  0  0  0  0  0  0  0  0  0  0
   -0.2886  -52.9203  -19.9621 C   0  0  0  0  0  0  0  0  0  0  0  0
    0.8350  -51.4660  -23.7810 N   0  0  0  0  0  0  0  0  0  0  0  0
    2.0350  -50.6442  -24.0034 C   0  0  0  0  0  0  0  0  0  0  0  0
    2.2957  -50.6223  -25.4856 C   0  0  0  0  0  0  0  0  0  0  0  0
    2.2277  -52.0278  -26.0433 C   0  0  0  0  0  0  0  0  0  0  0  0
    0.8175  -52.5037  -26.0226 C   0  0  0  0  0  0  0  0  0  0  0  0
    0.0440  -51.7303  -24.9785 C   0  0  0  0  0  0  0  0  0  0  0  0
    0.1171  -52.4366  -27.2713 N   0  0  0  0  0  0  0  0  0  0  0  0
   -1.2711  -52.7965  -27.0595 C   0  0  0  0  0  0  0  0  0  0  0  0
   -2.0455  -52.4919  -28.3195 C   0  0  0  0  0  0  0  0  0  0  0  0
   -1.4918  -53.1690  -29.3855 O   0  0  0  0  0  0  0  0  0  0  0  0
   -0.1757  -52.7930  -29.5892 C   0  0  0  0  0  0  0  0  0  0  0  0
    0.6120  -53.2359  -28.3337 C   0  0  0  0  0  0  0  0  0  0  0  0
    2.9034  -51.2614  -19.1754 C   0  0  0  0  0  0  0  0  0  0  0  0
    1.6994  -51.9775  -19.0100 O   0  0  0  0  0  0  0  0  0  0  0  0
 42 43  1  0  0  0
 43 24  1  0  0  0
 24 25  2  0  0  0
 25 26  1  0  0  0
 26 27  2  0  0  0
 27 28  1  0  0  0
 28 29  2  0  0  0
 29  1  1  0  0  0
  1  3  1  0  0  0
  3  4  2  0  0  0
  4  5  1  0  0  0
  5  6  2  0  0  0
  6  7  1  0  0  0
  6  8  1  0  0  0
  8 10  1  0  0  0
 10 12  1  0  0  0
 12 13  2  0  0  0
 13 14  1  0  0  0
 14 15  2  0  0  0
 15 16  1  0  0  0
 16 17  2  0  0  0
 17 18  1  0  0  0
 18 19  2  0  0  0
 18 20  2  0  0  0
 18 21  1  0  0  0
 21 22  1  0  0  0
 21 23  1  0  0  0
  8  9  2  0  0  0
 26 30  1  0  0  0
 30 31  1  0  0  0
 31 32  1  0  0  0
 32 33  1  0  0  0
 33 34  1  0  0  0
 34 35  1  0  0  0
 34 36  1  0  0  0
 36 37  1  0  0  0
 37 38  1  0  0  0
 38 39  1  0  0  0
 39 40  1  0  0  0
 40 41  1  0  0  0
 29 24  1  0  0  0
  9  3  1  0  0  0
 35 30  1  0  0  0
 41 36  1  0  0  0
 17 12  1  0  0  0
  1  2  1  0  0  0
 10 11  1  0  0  0
M  END
> <minimizedAffinity>
-8.03763

> <CNNscore>
0.0879631788

> <CNNaffinity>
7.0494933128

> <CNN_VS>
0.6200958490

> <CNNaffinity_variance>
0.0915898830

$$$$
[H]c1nc(N([H])c2c([H])c([H])c(N3C([H])([H])C([H])([H])C([H])([H])[C@]([H])(N4C([H])([H])C([H])([H])OC([H])([H])C4([H])[H])C3([H])[H])c([H])c2OC([H])([H])[H])nc(N([H])c2c([H])c([H])c([H])c([H])c2S(=O)(=O)C([H])(C([H])([H])[H])C([H])([H])[H])c1Cl


 43 47  0  0  0  0  0  0  0  0999 V2000
   -0.6014  -53.4483  -18.1965 N   0  0  0  0  0  0  0  0  0  0  0  0
   -0.0915  -54.3684  -17.9258 H   0  0  0  0  0  0  0  0  0  0  0  0
   -1.3145  -52.8029  -17.1829 C   0  0  0  0  0  0  0  0  0  0  0  0
   -2.6740  -53.0226  -17.1805 N   0  0  0  0  0  0  0  0  0  0  0  0
   -3.4675  -52.5171  -16.2349 C   0  0  0  0  0  0  0  0  0  0  0  0
   -2.9399  -51.7583  -15.2327 C   0  0  0  0  0  0  0  0  0  0  0  0
   -4.0207  -51.0982  -13.9877 Cl  0  0  0  0  0  0  0  0  0  0  0  0
   -1.5568  -51.5082  -15.1928 C   0  0  0  0  0  0  0  0  0  0  0  0
   -0.8514  -52.0550  -16.1809 N   0  0  0  0  0  0  0  0  0  0  0  0
   -1.0766  -50.7236  -14.1285 N   0  0  0  0  0  0  0  0  0  0  0  0
   -1.8589  -50.2384  -13.5367 H   0  0  0  0  0  0  0  0  0  0  0  0
    0.2215  -50.4512  -13.6890 C   0  0  0  0  0  0  0  0  0  0  0  0
    1.1835  -51.4127  -13.5891 C   0  0  0  0  0  0  0  0  0  0  0  0
    2.4824  -51.1677  -13.1243 C   0  0  0  0  0  0  0  0  0  0  0  0
    2.8116  -49.8980  -12.7462 C   0  0  0  0  0  0  0  0  0  0  0  0
    1.8525  -48.9140  -12.8389 C   0  0  0  0  0  0  0  0  0  0  0  0
    0.5768  -49.1467  -13.2951 C   0  0  0  0  0  0  0  0  0  0  0  0
   -0.6140  -47.8628  -13.3744 S   0  0  0  0  0  0  0  0  0  0  0  0
   -1.9294  -48.2615  -12.7714 O   0  0  0  0  0  0  0  0  0  0  0  0
   -0.0814  -46.5786  -12.7656 O   0  0  0  0  0  0  0  0  0  0  0  0
   -0.9352  -47.4839  -15.0867 C   0  0  0  0  0  0  0  0  0  0  0  0
   -2.3569  -47.9165  -15.4555 C   0  0  0  0  0  0  0  0  0  0  0  0
    0.0614  -48.1420  -15.9903 C   0  0  0  0  0  0  0  0  0  0  0  0
    0.2562  -51.9149  -19.8730 C   0  0  0  0  0  0  0  0  0  0  0  0
    0.4713  -51.5522  -21.1764 C   0  0  0  0  0  0  0  0  0  0  0  0
    0.0152  -52.3041  -22.2302 C   0  0  0  0  0  0  0  0  0  0  0  0
   -0.6740  -53.4494  -21.9157 C   0  0  0  0  0  0  0  0  0  0  0  0
   -0.8963  -53.8224  -20.5981 C   0  0  0  0  0  0  0  0  0  0  0  0
   -0.4462  -53.0791  -19.5503 C   0  0  0  0  0  0  0  0  0  0  0  0
    0.1825  -51.9459  -23.5855 N   0  0  0  0  0  0  0  0  0  0  0  0
    1.3736  -51.2136  -24.0434 C   0  0  0  0  0  0  0  0  0  0  0  0
    1.4266  -51.3354  -25.5426 C   0  0  0  0  0  0  0  0  0  0  0  0
    1.2225  -52.7784  -25.9516 C   0  0  0  0  0  0  0  0  0  0  0  0
   -0.1900  -53.1727  -25.6968 C   0  0  0  0  0  0  0  0  0  0  0  0
   -0.7776  -52.2701  -24.6355 C   0  0  0  0  0  0  0  0  0  0  0  0
   -1.0537  -53.1766  -26.8407 N   0  0  0  0  0  0  0  0  0  0  0  0
   -0.2494  -53.1275  -28.0458 C   0  0  0  0  0  0  0  0  0  0  0  0
   -1.1472  -53.3738  -29.2346 C   0  0  0  0  0  0  0  0  0  0  0  0
   -2.1658  -52.4446  -29.2536 O   0  0  0  0  0  0  0  0  0  0  0  0
   -2.9386  -52.5244  -28.1084 C   0  0  0  0  0  0  0  0  0  0  0  0
   -2.0194  -52.1407  -26.9249 C   0  0  0  0  0  0  0  0  0  0  0  0
    1.8646  -50.3136  -19.0390 C   0  0  0  0  0  0  0  0  0  0  0  0
    0.7365  -51.1292  -18.8108 O   0  0  0  0  0  0  0  0  0  0  0  0
 42 43  1  0  0  0
 43 24  1  0  0  0
 24 25  2  0  0  0
 25 26  1  0  0  0
 26 27  2  0  0  0
 27 28  1  0  0  0
 28 29  2  0  0  0
 29  1  1  0  0  0
  1  3  1  0  0  0
  3  4  2  0  0  0
  4  5  1  0  0  0
  5  6  2  0  0  0
  6  7  1  0  0  0
  6  8  1  0  0  0
  8 10  1  0  0  0
 10 12  1  0  0  0
 12 13  2  0  0  0
 13 14  1  0  0  0
 14 15  2  0  0  0
 15 16  1  0  0  0
 16 17  2  0  0  0
 17 18  1  0  0  0
 18 19  2  0  0  0
 18 20  2  0  0  0
 18 21  1  0  0  0
 21 22  1  0  0  0
 21 23  1  0  0  0
  8  9  2  0  0  0
 26 30  1  0  0  0
 30 31  1  0  0  0
 31 32  1  0  0  0
 32 33  1  0  0  0
 33 34  1  0  0  0
 34 35  1  0  0  0
 34 36  1  0  0  0
 36 37  1  0  0  0
 37 38  1  0  0  0
 38 39  1  0  0  0
 39 40  1  0  0  0
 40 41  1  0  0  0
 29 24  1  0  0  0
  9  3  1  0  0  0
 35 30  1  0  0  0
 41 36  1  0  0  0
 17 12  1  0  0  0
  1  2  1  0  0  0
 10 11  1  0  0  0
M  END
> <minimizedAffinity>
-7.50568

> <CNNscore>
0.0755146220

> <CNNaffinity>
7.0324187279

> <CNN_VS>
0.5310504436

> <CNNaffinity_variance>
0.0410919860

$$$$
[H]c1nc(N([H])c2c([H])c([H])c(N3C([H])([H])C([H])([H])C([H])([H])[C@]([H])(N4C([H])([H])C([H])([H])OC([H])([H])C4([H])[H])C3([H])[H])c([H])c2OC([H])([H])[H])nc(N([H])c2c([H])c([H])c([H])c([H])c2S(=O)(=O)C([H])(C([H])([H])[H])C([H])([H])[H])c1Cl


 43 47  0  0  0  0  0  0  0  0999 V2000
    0.1761  -52.2252  -22.3935 N   0  0  0  0  0  0  0  0  0  0  0  0
   -0.4587  -53.0180  -22.7785 H   0  0  0  0  0  0  0  0  0  0  0  0
    1.0096  -51.5839  -23.3135 C   0  0  0  0  0  0  0  0  0  0  0  0
    0.6720  -51.7512  -24.6381 N   0  0  0  0  0  0  0  0  0  0  0  0
    1.3452  -51.1467  -25.6183 C   0  0  0  0  0  0  0  0  0  0  0  0
    2.4009  -50.3357  -25.3242 C   0  0  0  0  0  0  0  0  0  0  0  0
    3.2785  -49.5443  -26.6499 Cl  0  0  0  0  0  0  0  0  0  0  0  0
    2.7815  -50.1334  -23.9858 C   0  0  0  0  0  0  0  0  0  0  0  0
    2.0487  -50.7810  -23.0822 N   0  0  0  0  0  0  0  0  0  0  0  0
    3.8748  -49.2798  -23.7512 N   0  0  0  0  0  0  0  0  0  0  0  0
    4.8405  -49.6859  -24.0677 H   0  0  0  0  0  0  0  0  0  0  0  0
    3.9511  -48.0042  -23.1861 C   0  0  0  0  0  0  0  0  0  0  0  0
    3.1833  -46.9612  -23.6131 C   0  0  0  0  0  0  0  0  0  0  0  0
    3.2633  -45.6676  -23.0805 C   0  0  0  0  0  0  0  0  0  0  0  0
    4.1591  -45.4287  -22.0786 C   0  0  0  0  0  0  0  0  0  0  0  0
    4.9441  -46.4697  -21.6352 C   0  0  0  0  0  0  0  0  0  0  0  0
    4.8702  -47.7414  -22.1520 C   0  0  0  0  0  0  0  0  0  0  0  0
    5.9070  -49.0278  -21.5663 S   0  0  0  0  0  0  0  0  0  0  0  0
    6.5181  -48.7106  -20.2327 O   0  0  0  0  0  0  0  0  0  0  0  0
    5.1780  -50.3589  -21.5496 O   0  0  0  0  0  0  0  0  0  0  0  0
    7.2607  -49.2374  -22.7075 C   0  0  0  0  0  0  0  0  0  0  0  0
    7.4131  -47.9797  -23.5675 C   0  0  0  0  0  0  0  0  0  0  0  0
    7.0652  -50.4422  -23.5750 C   0  0  0  0  0  0  0  0  0  0  0  0
   -0.6912  -52.8985  -20.2273 C   0  0  0  0  0  0  0  0  0  0  0  0
   -0.8043  -52.7370  -18.8717 C   0  0  0  0  0  0  0  0  0  0  0  0
   -0.2137  -51.6910  -18.2074 C   0  0  0  0  0  0  0  0  0  0  0  0
    0.5039  -50.8039  -18.9714 C   0  0  0  0  0  0  0  0  0  0  0  0
    0.6217  -50.9607  -20.3448 C   0  0  0  0  0  0  0  0  0  0  0  0
    0.0370  -51.9962  -21.0073 C   0  0  0  0  0  0  0  0  0  0  0  0
   -0.3376  -51.4679  -16.8189 N   0  0  0  0  0  0  0  0  0  0  0  0
    0.8259  -51.1080  -15.9935 C   0  0  0  0  0  0  0  0  0  0  0  0
    0.3019  -50.5730  -14.6879 C   0  0  0  0  0  0  0  0  0  0  0  0
   -0.7863  -49.5532  -14.9465 C   0  0  0  0  0  0  0  0  0  0  0  0
   -2.0001  -50.2414  -15.4649 C   0  0  0  0  0  0  0  0  0  0  0  0
   -1.5994  -51.5579  -16.0914 C   0  0  0  0  0  0  0  0  0  0  0  0
   -3.0425  -50.4742  -14.5090 N   0  0  0  0  0  0  0  0  0  0  0  0
   -3.3917  -51.8811  -14.5172 C   0  0  0  0  0  0  0  0  0  0  0  0
   -4.3093  -52.1566  -13.3502 C   0  0  0  0  0  0  0  0  0  0  0  0
   -5.4224  -51.3463  -13.4273 O   0  0  0  0  0  0  0  0  0  0  0  0
   -5.0718  -50.0080  -13.3910 C   0  0  0  0  0  0  0  0  0  0  0  0
   -4.2412  -49.7319  -14.6664 C   0  0  0  0  0  0  0  0  0  0  0  0
   -0.4994  -54.8158  -21.6880 C   0  0  0  0  0  0  0  0  0  0  0  0
   -1.3031  -53.9803  -20.8844 O   0  0  0  0  0  0  0  0  0  0  0  0
 42 43  1  0  0  0
 43 24  1  0  0  0
 24 25  2  0  0  0
 25 26  1  0  0  0
 26 27  2  0  0  0
 27 28  1  0  0  0
 28 29  2  0  0  0
 29  1  1  0  0  0
  1  3  1  0  0  0
  3  4  2  0  0  0
  4  5  1  0  0  0
  5  6  2  0  0  0
  6  7  1  0  0  0
  6  8  1  0  0  0
  8 10  1  0  0  0
 10 12  1  0  0  0
 12 13  2  0  0  0
 13 14  1  0  0  0
 14 15  2  0  0  0
 15 16  1  0  0  0
 16 17  2  0  0  0
 17 18  1  0  0  0
 18 19  2  0  0  0
 18 20  2  0  0  0
 18 21  1  0  0  0
 21 22  1  0  0  0
 21 23  1  0  0  0
  8  9  2  0  0  0
 26 30  1  0  0  0
 30 31  1  0  0  0
 31 32  1  0  0  0
 32 33  1  0  0  0
 33 34  1  0  0  0
 34 35  1  0  0  0
 34 36  1  0  0  0
 36 37  1  0  0  0
 37 38  1  0  0  0
 38 39  1  0  0  0
 39 40  1  0  0  0
 40 41  1  0  0  0
 29 24  1  0  0  0
  9  3  1  0  0  0
 35 30  1  0  0  0
 41 36  1  0  0  0
 17 12  1  0  0  0
  1  2  1  0  0  0
 10 11  1  0  0  0
M  END
> <minimizedAffinity>
-7.00734

> <CNNscore>
0.0644851476

> <CNNaffinity>
7.0455641747

> <CNN_VS>
0.4543342590

> <CNNaffinity_variance>
0.0834648311

$$$$
[H]c1nc(N([H])c2c([H])c([H])c(N3C([H])([H])C([H])([H])C([H])([H])[C@@]([H])(N4C([H])([H])C([H])([H])N(C([H])([H])[H])C([H])([H])C4([H])[H])C3([H])[H])c([H])c2OC([H])([H])[H])nc(N([H])c2c([H])c([H])c([H])c([H])c2S(=O)(=O)C(C([H])([H])[H])(C([H])([H])[H])C([H])([H])[H])c1Cl


 45 49  0  0  0  0  0  0  0  0999 V2000
   -0.2040  -53.5001  -19.5337 N   0  0  0  0  0  0  0  0  0  0  0  0
   -0.0645  -54.5503  -19.2960 H   0  0  0  0  0  0  0  0  0  0  0  0
   -0.0229  -53.1908  -20.8897 C   0  0  0  0  0  0  0  0  0  0  0  0
   -0.7600  -53.9512  -21.7700 N   0  0  0  0  0  0  0  0  0  0  0  0
   -0.7104  -53.7319  -23.0768 C   0  0  0  0  0  0  0  0  0  0  0  0
    0.0976  -52.7206  -23.5447 C   0  0  0  0  0  0  0  0  0  0  0  0
    0.1982  -52.4090  -25.2765 Cl  0  0  0  0  0  0  0  0  0  0  0  0
    0.8683  -51.9143  -22.6882 C   0  0  0  0  0  0  0  0  0  0  0  0
    0.7429  -52.2235  -21.3945 N   0  0  0  0  0  0  0  0  0  0  0  0
    1.6872  -50.9127  -23.2511 N   0  0  0  0  0  0  0  0  0  0  0  0
    2.0008  -51.1283  -24.2443 H   0  0  0  0  0  0  0  0  0  0  0  0
    2.1645  -49.7255  -22.7245 C   0  0  0  0  0  0  0  0  0  0  0  0
    1.4347  -48.9417  -21.8793 C   0  0  0  0  0  0  0  0  0  0  0  0
    1.9158  -47.7693  -21.2837 C   0  0  0  0  0  0  0  0  0  0  0  0
    3.1945  -47.3725  -21.5580 C   0  0  0  0  0  0  0  0  0  0  0  0
    3.9337  -48.1394  -22.4001 C   0  0  0  0  0  0  0  0  0  0  0  0
    3.4717  -49.3202  -23.0119 C   0  0  0  0  0  0  0  0  0  0  0  0
    4.5168  -50.0619  -24.1568 S   0  0  0  0  0  0  0  0  0  0  0  0
    3.6390  -50.9366  -25.0869 O   0  0  0  0  0  0  0  0  0  0  0  0
    5.1659  -49.1108  -25.1286 O   0  0  0  0  0  0  0  0  0  0  0  0
    5.7249  -51.1493  -23.5118 C   0  0  0  0  0  0  0  0  0  0  0  0
    5.7125  -52.4868  -24.2773 C   0  0  0  0  0  0  0  0  0  0  0  0
    7.1236  -50.6695  -23.4789 C   0  0  0  0  0  0  0  0  0  0  0  0
    5.3097  -51.6014  -22.0733 C   0  0  0  0  0  0  0  0  0  0  0  0
    0.2544  -51.6030  -18.1063 C   0  0  0  0  0  0  0  0  0  0  0  0
   -0.0831  -50.7728  -17.0534 C   0  0  0  0  0  0  0  0  0  0  0  0
   -1.1917  -50.9784  -16.2726 C   0  0  0  0  0  0  0  0  0  0  0  0
   -1.9705  -52.0765  -16.5967 C   0  0  0  0  0  0  0  0  0  0  0  0
   -1.6287  -52.9030  -17.6506 C   0  0  0  0  0  0  0  0  0  0  0  0
   -0.5259  -52.7094  -18.4349 C   0  0  0  0  0  0  0  0  0  0  0  0
   -1.5076  -50.1314  -15.1939 N   0  0  0  0  0  0  0  0  0  0  0  0
   -1.9860  -50.6687  -13.9518 C   0  0  0  0  0  0  0  0  0  0  0  0
   -1.2204  -50.0946  -12.7714 C   0  0  0  0  0  0  0  0  0  0  0  0
   -1.4414  -48.5812  -12.8754 C   0  0  0  0  0  0  0  0  0  0  0  0
   -0.6076  -48.1540  -14.0792 C   0  0  0  0  0  0  0  0  0  0  0  0
   -1.3512  -48.6723  -15.2865 C   0  0  0  0  0  0  0  0  0  0  0  0
    0.6958  -48.6649  -13.9244 N   0  0  0  0  0  0  0  0  0  0  0  0
    1.3673  -48.2813  -12.7340 C   0  0  0  0  0  0  0  0  0  0  0  0
    2.0774  -46.9671  -12.9877 C   0  0  0  0  0  0  0  0  0  0  0  0
    3.1180  -47.0983  -13.9682 N   0  0  0  0  0  0  0  0  0  0  0  0
    3.5540  -45.8893  -14.5677 C   0  0  0  0  0  0  0  0  0  0  0  0
    2.9545  -48.2175  -14.8457 C   0  0  0  0  0  0  0  0  0  0  0  0
    1.5511  -48.6869  -15.0454 C   0  0  0  0  0  0  0  0  0  0  0  0
    2.5591  -50.9399  -18.2371 C   0  0  0  0  0  0  0  0  0  0  0  0
    1.3830  -51.3585  -18.8686 O   0  0  0  0  0  0  0  0  0  0  0  0
 44 45  1  0  0  0
 45 25  1  0  0  0
 25 26  2  0  0  0
 26 27  1  0  0  0
 27 28  2  0  0  0
 28 29  1  0  0  0
 29 30  2  0  0  0
 30  1  1  0  0  0
  1  3  1  0  0  0
  3  4  2  0  0  0
  4  5  1  0  0  0
  5  6  2  0  0  0
  6  7  1  0  0  0
  6  8  1  0  0  0
  8 10  1  0  0  0
 10 12  1  0  0  0
 12 13  2  0  0  0
 13 14  1  0  0  0
 14 15  2  0  0  0
 15 16  1  0  0  0
 16 17  2  0  0  0
 17 18  1  0  0  0
 18 19  2  0  0  0
 18 20  2  0  0  0
 18 21  1  0  0  0
 21 22  1  0  0  0
 21 23  1  0  0  0
 21 24  1  0  0  0
  8  9  2  0  0  0
 27 31  1  0  0  0
 31 32  1  0  0  0
 32 33  1  0  0  0
 33 34  1  0  0  0
 34 35  1  0  0  0
 35 36  1  0  0  0
 35 37  1  0  0  0
 37 38  1  0  0  0
 38 39  1  0  0  0
 39 40  1  0  0  0
 40 41  1  0  0  0
 40 42  1  0  0  0
 42 43  1  0  0  0
 30 25  1  0  0  0
  9  3  1  0  0  0
 36 31  1  0  0  0
 43 37  1  0  0  0
 17 12  1  0  0  0
  1  2  1  0  0  0
 10 11  1  0  0  0
M  END
> <minimizedAffinity>
-7.30363

> <CNNscore>
0.5212529898

> <CNNaffinity>
7.5860176086

> <CNN_VS>
3.9542343616

> <CNNaffinity_variance>
0.0403767414

$$$$
[H]c1nc(N([H])c2c([H])c([H])c(N3C([H])([H])C([H])([H])C([H])([H])[C@@]([H])(N4C([H])([H])C([H])([H])N(C([H])([H])[H])C([H])([H])C4([H])[H])C3([H])[H])c([H])c2OC([H])([H])[H])nc(N([H])c2c([H])c([H])c([H])c([H])c2S(=O)(=O)C(C([H])([H])[H])(C([H])([H])[H])C([H])([H])[H])c1Cl


 45 49  0  0  0  0  0  0  0  0999 V2000
   -0.8788  -53.2777  -18.9089 N   0  0  0  0  0  0  0  0  0  0  0  0
   -1.3661  -54.2350  -19.0666 H   0  0  0  0  0  0  0  0  0  0  0  0
   -1.1811  -52.6770  -17.6780 C   0  0  0  0  0  0  0  0  0  0  0  0
   -2.4867  -52.8136  -17.2617 N   0  0  0  0  0  0  0  0  0  0  0  0
   -2.8915  -52.3269  -16.0966 C   0  0  0  0  0  0  0  0  0  0  0  0
   -1.9759  -51.6765  -15.3007 C   0  0  0  0  0  0  0  0  0  0  0  0
   -2.4816  -51.0056  -13.7514 Cl  0  0  0  0  0  0  0  0  0  0  0  0
   -0.6313  -51.5122  -15.6783 C   0  0  0  0  0  0  0  0  0  0  0  0
   -0.3346  -52.0395  -16.8693 N   0  0  0  0  0  0  0  0  0  0  0  0
    0.2375  -50.8136  -14.8134 N   0  0  0  0  0  0  0  0  0  0  0  0
   -0.0607  -49.8090  -14.6316 H   0  0  0  0  0  0  0  0  0  0  0  0
    1.4102  -51.2046  -14.1916 C   0  0  0  0  0  0  0  0  0  0  0  0
    1.4770  -52.2589  -13.3283 C   0  0  0  0  0  0  0  0  0  0  0  0
    2.6608  -52.7137  -12.7346 C   0  0  0  0  0  0  0  0  0  0  0  0
    3.8300  -52.0701  -13.0282 C   0  0  0  0  0  0  0  0  0  0  0  0
    3.7809  -51.0163  -13.8832 C   0  0  0  0  0  0  0  0  0  0  0  0
    2.6036  -50.5399  -14.4908 C   0  0  0  0  0  0  0  0  0  0  0  0
    2.7384  -49.1046  -15.4261 S   0  0  0  0  0  0  0  0  0  0  0  0
    1.4227  -48.3070  -15.2430 O   0  0  0  0  0  0  0  0  0  0  0  0
    3.7768  -48.1279  -14.9382 O   0  0  0  0  0  0  0  0  0  0  0  0
    2.9071  -49.3189  -17.1534 C   0  0  0  0  0  0  0  0  0  0  0  0
    3.7870  -48.2049  -17.7532 C   0  0  0  0  0  0  0  0  0  0  0  0
    3.4433  -50.6128  -17.6290 C   0  0  0  0  0  0  0  0  0  0  0  0
    1.5337  -49.0513  -17.8520 C   0  0  0  0  0  0  0  0  0  0  0  0
   -0.2065  -53.4589  -21.2243 C   0  0  0  0  0  0  0  0  0  0  0  0
    0.5454  -53.0289  -22.3021 C   0  0  0  0  0  0  0  0  0  0  0  0
    1.4604  -52.0114  -22.2095 C   0  0  0  0  0  0  0  0  0  0  0  0
    1.5957  -51.4249  -20.9625 C   0  0  0  0  0  0  0  0  0  0  0  0
    0.8412  -51.8584  -19.8884 C   0  0  0  0  0  0  0  0  0  0  0  0
   -0.0725  -52.8722  -19.9679 C   0  0  0  0  0  0  0  0  0  0  0  0
    2.2288  -51.6010  -23.3149 N   0  0  0  0  0  0  0  0  0  0  0  0
    3.5968  -52.0130  -23.4541 C   0  0  0  0  0  0  0  0  0  0  0  0
    3.8677  -52.5649  -24.8437 C   0  0  0  0  0  0  0  0  0  0  0  0
    3.5074  -51.4116  -25.7872 C   0  0  0  0  0  0  0  0  0  0  0  0
    1.9853  -51.3306  -25.7295 C   0  0  0  0  0  0  0  0  0  0  0  0
    1.6656  -50.7496  -24.3732 C   0  0  0  0  0  0  0  0  0  0  0  0
    1.4599  -52.6170  -25.9595 N   0  0  0  0  0  0  0  0  0  0  0  0
    1.9630  -53.2891  -27.1041 C   0  0  0  0  0  0  0  0  0  0  0  0
    1.1178  -52.8973  -28.2990 C   0  0  0  0  0  0  0  0  0  0  0  0
   -0.2373  -53.3548  -28.1728 N   0  0  0  0  0  0  0  0  0  0  0  0
   -1.1849  -52.7081  -29.0065 C   0  0  0  0  0  0  0  0  0  0  0  0
   -0.6457  -53.6025  -26.8232 C   0  0  0  0  0  0  0  0  0  0  0  0
    0.0778  -52.8263  -25.7726 C   0  0  0  0  0  0  0  0  0  0  0  0
   -1.4393  -54.9548  -22.6425 C   0  0  0  0  0  0  0  0  0  0  0  0
   -1.1188  -54.4899  -21.3624 O   0  0  0  0  0  0  0  0  0  0  0  0
 44 45  1  0  0  0
 45 25  1  0  0  0
 25 26  2  0  0  0
 26 27  1  0  0  0
 27 28  2  0  0  0
 28 29  1  0  0  0
 29 30  2  0  0  0
 30  1  1  0  0  0
  1  3  1  0  0  0
  3  4  2  0  0  0
  4  5  1  0  0  0
  5  6  2  0  0  0
  6  7  1  0  0  0
  6  8  1  0  0  0
  8 10  1  0  0  0
 10 12  1  0  0  0
 12 13  2  0  0  0
 13 14  1  0  0  0
 14 15  2  0  0  0
 15 16  1  0  0  0
 16 17  2  0  0  0
 17 18  1  0  0  0
 18 19  2  0  0  0
 18 20  2  0  0  0
 18 21  1  0  0  0
 21 22  1  0  0  0
 21 23  1  0  0  0
 21 24  1  0  0  0
  8  9  2  0  0  0
 27 31  1  0  0  0
 31 32  1  0  0  0
 32 33  1  0  0  0
 33 34  1  0  0  0
 34 35  1  0  0  0
 35 36  1  0  0  0
 35 37  1  0  0  0
 37 38  1  0  0  0
 38 39  1  0  0  0
 39 40  1  0  0  0
 40 41  1  0  0  0
 40 42  1  0  0  0
 42 43  1  0  0  0
 30 25  1  0  0  0
  9  3  1  0  0  0
 36 31  1  0  0  0
 43 37  1  0  0  0
 17 12  1  0  0  0
  1  2  1  0  0  0
 10 11  1  0  0  0
M  END
> <minimizedAffinity>
-8.35833

> <CNNscore>
0.3701959550

> <CNNaffinity>
7.9584741592

> <CNN_VS>
2.9461948872

> <CNNaffinity_variance>
0.0783108920

$$$$
[H]c1nc(N([H])c2c([H])c([H])c(N3C([H])([H])C([H])([H])C([H])([H])[C@@]([H])(N4C([H])([H])C([H])([H])N(C([H])([H])[H])C([H])([H])C4([H])[H])C3([H])[H])c([H])c2OC([H])([H])[H])nc(N([H])c2c([H])c([H])c([H])c([H])c2S(=O)(=O)C(C([H])([H])[H])(C([H])([H])[H])C([H])([H])[H])c1Cl


 45 49  0  0  0  0  0  0  0  0999 V2000
   -0.9754  -53.4034  -18.4777 N   0  0  0  0  0  0  0  0  0  0  0  0
   -1.1330  -54.4770  -18.5173 H   0  0  0  0  0  0  0  0  0  0  0  0
   -1.6605  -52.7621  -17.4353 C   0  0  0  0  0  0  0  0  0  0  0  0
   -2.9755  -53.1390  -17.2763 N   0  0  0  0  0  0  0  0  0  0  0  0
   -3.7216  -52.6374  -16.3016 C   0  0  0  0  0  0  0  0  0  0  0  0
   -3.1547  -51.7246  -15.4414 C   0  0  0  0  0  0  0  0  0  0  0  0
   -4.1202  -51.0274  -14.1423 Cl  0  0  0  0  0  0  0  0  0  0  0  0
   -1.8166  -51.3083  -15.5592 C   0  0  0  0  0  0  0  0  0  0  0  0
   -1.1599  -51.8756  -16.5749 N   0  0  0  0  0  0  0  0  0  0  0  0
   -1.3192  -50.3519  -14.6487 N   0  0  0  0  0  0  0  0  0  0  0  0
   -1.0266  -50.7666  -13.7141 H   0  0  0  0  0  0  0  0  0  0  0  0
   -1.1748  -48.9802  -14.7587 C   0  0  0  0  0  0  0  0  0  0  0  0
   -2.2302  -48.1347  -14.9394 C   0  0  0  0  0  0  0  0  0  0  0  0
   -2.1187  -46.7398  -14.9914 C   0  0  0  0  0  0  0  0  0  0  0  0
   -0.8813  -46.1761  -14.8551 C   0  0  0  0  0  0  0  0  0  0  0  0
    0.1807  -47.0036  -14.6779 C   0  0  0  0  0  0  0  0  0  0  0  0
    0.0939  -48.4078  -14.6240 C   0  0  0  0  0  0  0  0  0  0  0  0
    1.5752  -49.2747  -14.5386 S   0  0  0  0  0  0  0  0  0  0  0  0
    2.5182  -48.4889  -13.5930 O   0  0  0  0  0  0  0  0  0  0  0  0
    1.4837  -50.6163  -13.8589 O   0  0  0  0  0  0  0  0  0  0  0  0
    2.4629  -49.4403  -16.0361 C   0  0  0  0  0  0  0  0  0  0  0  0
    3.5355  -48.3400  -16.1535 C   0  0  0  0  0  0  0  0  0  0  0  0
    3.1268  -50.7368  -16.2933 C   0  0  0  0  0  0  0  0  0  0  0  0
    1.5259  -49.1022  -17.2418 C   0  0  0  0  0  0  0  0  0  0  0  0
   -0.2382  -53.3891  -20.7804 C   0  0  0  0  0  0  0  0  0  0  0  0
    0.5502  -52.8770  -21.7943 C   0  0  0  0  0  0  0  0  0  0  0  0
    1.4752  -51.8860  -21.5859 C   0  0  0  0  0  0  0  0  0  0  0  0
    1.5817  -51.4144  -20.2884 C   0  0  0  0  0  0  0  0  0  0  0  0
    0.7907  -51.9297  -19.2786 C   0  0  0  0  0  0  0  0  0  0  0  0
   -0.1334  -52.9182  -19.4735 C   0  0  0  0  0  0  0  0  0  0  0  0
    2.2807  -51.3911  -22.6286 N   0  0  0  0  0  0  0  0  0  0  0  0
    3.6853  -51.6830  -22.6754 C   0  0  0  0  0  0  0  0  0  0  0  0
    4.0988  -52.1837  -24.0493 C   0  0  0  0  0  0  0  0  0  0  0  0
    3.7076  -51.0474  -25.0011 C   0  0  0  0  0  0  0  0  0  0  0  0
    2.1838  -51.0967  -25.0507 C   0  0  0  0  0  0  0  0  0  0  0  0
    1.7217  -50.5706  -23.7132 C   0  0  0  0  0  0  0  0  0  0  0  0
    1.7880  -52.4184  -25.3340 N   0  0  0  0  0  0  0  0  0  0  0  0
    2.4208  -53.0214  -26.4525 C   0  0  0  0  0  0  0  0  0  0  0  0
    1.6240  -52.6791  -27.6949 C   0  0  0  0  0  0  0  0  0  0  0  0
    0.3085  -53.2534  -27.6657 N   0  0  0  0  0  0  0  0  0  0  0  0
   -0.6357  -52.6734  -28.5508 C   0  0  0  0  0  0  0  0  0  0  0  0
   -0.1636  -53.5627  -26.3500 C   0  0  0  0  0  0  0  0  0  0  0  0
    0.4202  -52.7491  -25.2423 C   0  0  0  0  0  0  0  0  0  0  0  0
   -1.3267  -54.8498  -22.3457 C   0  0  0  0  0  0  0  0  0  0  0  0
   -1.1594  -54.3897  -21.0351 O   0  0  0  0  0  0  0  0  0  0  0  0
 44 45  1  0  0  0
 45 25  1  0  0  0
 25 26  2  0  0  0
 26 27  1  0  0  0
 27 28  2  0  0  0
 28 29  1  0  0  0
 29 30  2  0  0  0
 30  1  1  0  0  0
  1  3  1  0  0  0
  3  4  2  0  0  0
  4  5  1  0  0  0
  5  6  2  0  0  0
  6  7  1  0  0  0
  6  8  1  0  0  0
  8 10  1  0  0  0
 10 12  1  0  0  0
 12 13  2  0  0  0
 13 14  1  0  0  0
 14 15  2  0  0  0
 15 16  1  0  0  0
 16 17  2  0  0  0
 17 18  1  0  0  0
 18 19  2  0  0  0
 18 20  2  0  0  0
 18 21  1  0  0  0
 21 22  1  0  0  0
 21 23  1  0  0  0
 21 24  1  0  0  0
  8  9  2  0  0  0
 27 31  1  0  0  0
 31 32  1  0  0  0
 32 33  1  0  0  0
 33 34  1  0  0  0
 34 35  1  0  0  0
 35 36  1  0  0  0
 35 37  1  0  0  0
 37 38  1  0  0  0
 38 39  1  0  0  0
 39 40  1  0  0  0
 40 41  1  0  0  0
 40 42  1  0  0  0
 42 43  1  0  0  0
 30 25  1  0  0  0
  9  3  1  0  0  0
 36 31  1  0  0  0
 43 37  1  0  0  0
 17 12  1  0  0  0
  1  2  1  0  0  0
 10 11  1  0  0  0
M  END
> <minimizedAffinity>
-8.36626

> <CNNscore>
0.3305639625

> <CNNaffinity>
7.7717919350

> <CNN_VS>
2.5690743923

> <CNNaffinity_variance>
0.1204532385

$$$$
[H]c1nc(N([H])c2c([H])c([H])c(N3C([H])([H])C([H])([H])C([H])([H])[C@@]([H])(N4C([H])([H])C([H])([H])N(C([H])([H])[H])C([H])([H])C4([H])[H])C3([H])[H])c([H])c2OC([H])([H])[H])nc(N([H])c2c([H])c([H])c([H])c([H])c2S(=O)(=O)C(C([H])([H])[H])(C([H])([H])[H])C([H])([H])[H])c1Cl


 45 49  0  0  0  0  0  0  0  0999 V2000
   -0.8627  -53.4051  -18.7383 N   0  0  0  0  0  0  0  0  0  0  0  0
   -1.3098  -54.3928  -18.7978 H   0  0  0  0  0  0  0  0  0  0  0  0
   -1.1729  -52.7059  -17.5626 C   0  0  0  0  0  0  0  0  0  0  0  0
   -2.5070  -52.6917  -17.2212 N   0  0  0  0  0  0  0  0  0  0  0  0
   -2.9266  -52.0998  -16.1113 C   0  0  0  0  0  0  0  0  0  0  0  0
   -1.9974  -51.4939  -15.2964 C   0  0  0  0  0  0  0  0  0  0  0  0
   -2.5206  -50.6864  -13.8198 Cl  0  0  0  0  0  0  0  0  0  0  0  0
   -0.6240  -51.4820  -15.5983 C   0  0  0  0  0  0  0  0  0  0  0  0
   -0.3143  -52.1054  -16.7386 N   0  0  0  0  0  0  0  0  0  0  0  0
    0.2598  -50.8196  -14.7201 N   0  0  0  0  0  0  0  0  0  0  0  0
   -0.0463  -49.8310  -14.4747 H   0  0  0  0  0  0  0  0  0  0  0  0
    1.4545  -51.2271  -14.1534 C   0  0  0  0  0  0  0  0  0  0  0  0
    1.5426  -52.2660  -13.2735 C   0  0  0  0  0  0  0  0  0  0  0  0
    2.7455  -52.7381  -12.7341 C   0  0  0  0  0  0  0  0  0  0  0  0
    3.9121  -52.1289  -13.1023 C   0  0  0  0  0  0  0  0  0  0  0  0
    3.8420  -51.0908  -13.9748 C   0  0  0  0  0  0  0  0  0  0  0  0
    2.6454  -50.5976  -14.5288 C   0  0  0  0  0  0  0  0  0  0  0  0
    2.7636  -49.1842  -15.4990 S   0  0  0  0  0  0  0  0  0  0  0  0
    1.4610  -48.3707  -15.2933 O   0  0  0  0  0  0  0  0  0  0  0  0
    3.8248  -48.2067  -15.0647 O   0  0  0  0  0  0  0  0  0  0  0  0
    2.8771  -49.4374  -17.2256 C   0  0  0  0  0  0  0  0  0  0  0  0
    3.6513  -48.2833  -17.8917 C   0  0  0  0  0  0  0  0  0  0  0  0
    3.4836  -50.7045  -17.6887 C   0  0  0  0  0  0  0  0  0  0  0  0
    1.4611  -49.2866  -17.8724 C   0  0  0  0  0  0  0  0  0  0  0  0
   -0.3765  -53.6031  -21.0985 C   0  0  0  0  0  0  0  0  0  0  0  0
    0.3429  -53.2332  -22.2198 C   0  0  0  0  0  0  0  0  0  0  0  0
    1.3711  -52.3266  -22.1757 C   0  0  0  0  0  0  0  0  0  0  0  0
    1.6574  -51.7896  -20.9320 C   0  0  0  0  0  0  0  0  0  0  0  0
    0.9347  -52.1626  -19.8142 C   0  0  0  0  0  0  0  0  0  0  0  0
   -0.0908  -53.0661  -19.8452 C   0  0  0  0  0  0  0  0  0  0  0  0
    2.1028  -51.9772  -23.3261 N   0  0  0  0  0  0  0  0  0  0  0  0
    1.5059  -51.1887  -24.3666 C   0  0  0  0  0  0  0  0  0  0  0  0
    2.4035  -50.0283  -24.7626 C   0  0  0  0  0  0  0  0  0  0  0  0
    3.7091  -50.6943  -25.2121 C   0  0  0  0  0  0  0  0  0  0  0  0
    4.3418  -51.2065  -23.9220 C   0  0  0  0  0  0  0  0  0  0  0  0
    3.5024  -52.3903  -23.5060 C   0  0  0  0  0  0  0  0  0  0  0  0
    4.3760  -50.1504  -22.9906 N   0  0  0  0  0  0  0  0  0  0  0  0
    5.0440  -48.9744  -23.4215 C   0  0  0  0  0  0  0  0  0  0  0  0
    6.5159  -49.1114  -23.0894 C   0  0  0  0  0  0  0  0  0  0  0  0
    6.7454  -49.1639  -21.6730 N   0  0  0  0  0  0  0  0  0  0  0  0
    7.9988  -49.6927  -21.2722 C   0  0  0  0  0  0  0  0  0  0  0  0
    5.6078  -49.5861  -20.9134 C   0  0  0  0  0  0  0  0  0  0  0  0
    4.6285  -50.4512  -21.6362 C   0  0  0  0  0  0  0  0  0  0  0  0
   -1.8235  -54.9638  -22.4488 C   0  0  0  0  0  0  0  0  0  0  0  0
   -1.4067  -54.5225  -21.1883 O   0  0  0  0  0  0  0  0  0  0  0  0
 44 45  1  0  0  0
 45 25  1  0  0  0
 25 26  2  0  0  0
 26 27  1  0  0  0
 27 28  2  0  0  0
 28 29  1  0  0  0
 29 30  2  0  0  0
 30  1  1  0  0  0
  1  3  1  0  0  0
  3  4  2  0  0  0
  4  5  1  0  0  0
  5  6  2  0  0  0
  6  7  1  0  0  0
  6  8  1  0  0  0
  8 10  1  0  0  0
 10 12  1  0  0  0
 12 13  2  0  0  0
 13 14  1  0  0  0
 14 15  2  0  0  0
 15 16  1  0  0  0
 16 17  2  0  0  0
 17 18  1  0  0  0
 18 19  2  0  0  0
 18 20  2  0  0  0
 18 21  1  0  0  0
 21 22  1  0  0  0
 21 23  1  0  0  0
 21 24  1  0  0  0
  8  9  2  0  0  0
 27 31  1  0  0  0
 31 32  1  0  0  0
 32 33  1  0  0  0
 33 34  1  0  0  0
 34 35  1  0  0  0
 35 36  1  0  0  0
 35 37  1  0  0  0
 37 38  1  0  0  0
 38 39  1  0  0  0
 39 40  1  0  0  0
 40 41  1  0  0  0
 40 42  1  0  0  0
 42 43  1  0  0  0
 30 25  1  0  0  0
  9  3  1  0  0  0
 36 31  1  0  0  0
 43 37  1  0  0  0
 17 12  1  0  0  0
  1  2  1  0  0  0
 10 11  1  0  0  0
M  END
> <minimizedAffinity>
-7.59367

> <CNNscore>
0.2287083566

> <CNNaffinity>
7.4335265160

> <CNN_VS>
1.7001096010

> <CNNaffinity_variance>
0.2808614373

$$$$
[H]c1nc(N([H])c2c([H])c([H])c(N3C([H])([H])C([H])([H])C([H])([H])[C@@]([H])(N4C([H])([H])C([H])([H])N(C([H])([H])[H])C([H])([H])C4([H])[H])C3([H])[H])c([H])c2OC([H])([H])[H])nc(N([H])c2c([H])c([H])c([H])c([H])c2S(=O)(=O)C(C([H])([H])[H])(C([H])([H])[H])C([H])([H])[H])c1Cl


 45 49  0  0  0  0  0  0  0  0999 V2000
    1.6363  -52.5884  -24.7763 N   0  0  0  0  0  0  0  0  0  0  0  0
    1.5603  -53.3044  -25.5890 H   0  0  0  0  0  0  0  0  0  0  0  0
    0.8404  -52.8983  -23.6637 C   0  0  0  0  0  0  0  0  0  0  0  0
   -0.4458  -53.2962  -23.9531 N   0  0  0  0  0  0  0  0  0  0  0  0
   -1.2868  -53.6561  -22.9931 C   0  0  0  0  0  0  0  0  0  0  0  0
   -0.8487  -53.6262  -21.6885 C   0  0  0  0  0  0  0  0  0  0  0  0
   -1.9432  -54.0856  -20.3857 Cl  0  0  0  0  0  0  0  0  0  0  0  0
    0.4548  -53.2301  -21.3401 C   0  0  0  0  0  0  0  0  0  0  0  0
    1.2147  -52.8881  -22.3843 N   0  0  0  0  0  0  0  0  0  0  0  0
    0.8171  -53.2070  -19.9766 N   0  0  0  0  0  0  0  0  0  0  0  0
    1.4802  -53.9910  -19.6995 H   0  0  0  0  0  0  0  0  0  0  0  0
    0.4384  -52.3613  -18.9490 C   0  0  0  0  0  0  0  0  0  0  0  0
   -0.6867  -52.5574  -18.2026 C   0  0  0  0  0  0  0  0  0  0  0  0
   -1.0595  -51.7535  -17.1183 C   0  0  0  0  0  0  0  0  0  0  0  0
   -0.2561  -50.7025  -16.7755 C   0  0  0  0  0  0  0  0  0  0  0  0
    0.8660  -50.4910  -17.5103 C   0  0  0  0  0  0  0  0  0  0  0  0
    1.2606  -51.2837  -18.6048 C   0  0  0  0  0  0  0  0  0  0  0  0
    2.6376  -50.7580  -19.4882 S   0  0  0  0  0  0  0  0  0  0  0  0
    3.6447  -50.1685  -18.4689 O   0  0  0  0  0  0  0  0  0  0  0  0
    3.4375  -51.8631  -20.1278 O   0  0  0  0  0  0  0  0  0  0  0  0
    2.3687  -49.4837  -20.6552 C   0  0  0  0  0  0  0  0  0  0  0  0
    2.4207  -48.1038  -19.9709 C   0  0  0  0  0  0  0  0  0  0  0  0
    3.2706  -49.4328  -21.8264 C   0  0  0  0  0  0  0  0  0  0  0  0
    0.8883  -49.5353  -21.1568 C   0  0  0  0  0  0  0  0  0  0  0  0
    3.8391  -51.6001  -24.6450 C   0  0  0  0  0  0  0  0  0  0  0  0
    4.7280  -50.5840  -24.9434 C   0  0  0  0  0  0  0  0  0  0  0  0
    4.3610  -49.4557  -25.6313 C   0  0  0  0  0  0  0  0  0  0  0  0
    3.0340  -49.3833  -26.0202 C   0  0  0  0  0  0  0  0  0  0  0  0
    2.1496  -50.4023  -25.7196 C   0  0  0  0  0  0  0  0  0  0  0  0
    2.5030  -51.5307  -25.0334 C   0  0  0  0  0  0  0  0  0  0  0  0
    5.2776  -48.4244  -25.9091 N   0  0  0  0  0  0  0  0  0  0  0  0
    5.4018  -47.8876  -27.2346 C   0  0  0  0  0  0  0  0  0  0  0  0
    5.3531  -46.3689  -27.2211 C   0  0  0  0  0  0  0  0  0  0  0  0
    6.5198  -45.9595  -26.3147 C   0  0  0  0  0  0  0  0  0  0  0  0
    6.0651  -46.3405  -24.9094 C   0  0  0  0  0  0  0  0  0  0  0  0
    6.1323  -47.8479  -24.8608 C   0  0  0  0  0  0  0  0  0  0  0  0
    4.7831  -45.7993  -24.6920 N   0  0  0  0  0  0  0  0  0  0  0  0
    4.7298  -44.3883  -24.5467 C   0  0  0  0  0  0  0  0  0  0  0  0
    4.9529  -44.0490  -23.0870 C   0  0  0  0  0  0  0  0  0  0  0  0
    3.8943  -44.5425  -22.2520 N   0  0  0  0  0  0  0  0  0  0  0  0
    4.1971  -44.6431  -20.8701 C   0  0  0  0  0  0  0  0  0  0  0  0
    3.1633  -45.6338  -22.8213 C   0  0  0  0  0  0  0  0  0  0  0  0
    3.9072  -46.4677  -23.8117 C   0  0  0  0  0  0  0  0  0  0  0  0
    5.4744  -52.6944  -23.2677 C   0  0  0  0  0  0  0  0  0  0  0  0
    4.2522  -52.7218  -23.9480 O   0  0  0  0  0  0  0  0  0  0  0  0
 44 45  1  0  0  0
 45 25  1  0  0  0
 25 26  2  0  0  0
 26 27  1  0  0  0
 27 28  2  0  0  0
 28 29  1  0  0  0
 29 30  2  0  0  0
 30  1  1  0  0  0
  1  3  1  0  0  0
  3  4  2  0  0  0
  4  5  1  0  0  0
  5  6  2  0  0  0
  6  7  1  0  0  0
  6  8  1  0  0  0
  8 10  1  0  0  0
 10 12  1  0  0  0
 12 13  2  0  0  0
 13 14  1  0  0  0
 14 15  2  0  0  0
 15 16  1  0  0  0
 16 17  2  0  0  0
 17 18  1  0  0  0
 18 19  2  0  0  0
 18 20  2  0  0  0
 18 21  1  0  0  0
 21 22  1  0  0  0
 21 23  1  0  0  0
 21 24  1  0  0  0
  8  9  2  0  0  0
 27 31  1  0  0  0
 31 32  1  0  0  0
 32 33  1  0  0  0
 33 34  1  0  0  0
 34 35  1  0  0  0
 35 36  1  0  0  0
 35 37  1  0  0  0
 37 38  1  0  0  0
 38 39  1  0  0  0
 39 40  1  0  0  0
 40 41  1  0  0  0
 40 42  1  0  0  0
 42 43  1  0  0  0
 30 25  1  0  0  0
  9  3  1  0  0  0
 36 31  1  0  0  0
 43 37  1  0  0  0
 17 12  1  0  0  0
  1  2  1  0  0  0
 10 11  1  0  0  0
M  END
> <minimizedAffinity>
-6.94465

> <CNNscore>
0.1875106394

> <CNNaffinity>
7.2588167191

> <CNN_VS>
1.3611053228

> <CNNaffinity_variance>
0.3665497899

$$$$
[H]c1nc(N([H])c2c([H])c([H])c(N3C([H])([H])C([H])([H])C([H])([H])[C@@]([H])(N4C([H])([H])C([H])([H])N(C([H])([H])[H])C([H])([H])C4([H])[H])C3([H])[H])c([H])c2OC([H])([H])[H])nc(N([H])c2c([H])c([H])c([H])c([H])c2S(=O)(=O)C(C([H])([H])[H])(C([H])([H])[H])C([H])([H])[H])c1Cl


 45 49  0  0  0  0  0  0  0  0999 V2000
   -0.3797  -53.3621  -18.4187 N   0  0  0  0  0  0  0  0  0  0  0  0
    0.3162  -54.0633  -17.9681 H   0  0  0  0  0  0  0  0  0  0  0  0
   -1.2610  -52.7637  -17.5064 C   0  0  0  0  0  0  0  0  0  0  0  0
   -2.5602  -53.2173  -17.5595 N   0  0  0  0  0  0  0  0  0  0  0  0
   -3.4825  -52.7618  -16.7228 C   0  0  0  0  0  0  0  0  0  0  0  0
   -3.1166  -51.8187  -15.7893 C   0  0  0  0  0  0  0  0  0  0  0  0
   -4.3191  -51.1814  -14.6694 Cl  0  0  0  0  0  0  0  0  0  0  0  0
   -1.8037  -51.3245  -15.6919 C   0  0  0  0  0  0  0  0  0  0  0  0
   -0.9590  -51.8507  -16.5832 N   0  0  0  0  0  0  0  0  0  0  0  0
   -1.5170  -50.3421  -14.7205 N   0  0  0  0  0  0  0  0  0  0  0  0
   -1.4236  -50.7326  -13.7356 H   0  0  0  0  0  0  0  0  0  0  0  0
   -1.3648  -48.9712  -14.8305 C   0  0  0  0  0  0  0  0  0  0  0  0
   -2.4190  -48.1154  -14.9626 C   0  0  0  0  0  0  0  0  0  0  0  0
   -2.2970  -46.7214  -15.0131 C   0  0  0  0  0  0  0  0  0  0  0  0
   -1.0498  -46.1695  -14.9269 C   0  0  0  0  0  0  0  0  0  0  0  0
    0.0111  -47.0073  -14.7985 C   0  0  0  0  0  0  0  0  0  0  0  0
   -0.0863  -48.4109  -14.7472 C   0  0  0  0  0  0  0  0  0  0  0  0
    1.3893  -49.2915  -14.7285 S   0  0  0  0  0  0  0  0  0  0  0  0
    2.3578  -48.5526  -13.7710 O   0  0  0  0  0  0  0  0  0  0  0  0
    1.3006  -50.6595  -14.1031 O   0  0  0  0  0  0  0  0  0  0  0  0
    2.2448  -49.4014  -16.2496 C   0  0  0  0  0  0  0  0  0  0  0  0
    3.0358  -50.7215  -16.3312 C   0  0  0  0  0  0  0  0  0  0  0  0
    1.4460  -49.2851  -17.4891 C   0  0  0  0  0  0  0  0  0  0  0  0
    3.3924  -48.3394  -16.2843 C   0  0  0  0  0  0  0  0  0  0  0  0
    0.9150  -52.6502  -20.3326 C   0  0  0  0  0  0  0  0  0  0  0  0
    1.1025  -52.5601  -21.6996 C   0  0  0  0  0  0  0  0  0  0  0  0
    0.1844  -53.0246  -22.6064 C   0  0  0  0  0  0  0  0  0  0  0  0
   -0.9586  -53.5993  -22.0768 C   0  0  0  0  0  0  0  0  0  0  0  0
   -1.1408  -53.6872  -20.7094 C   0  0  0  0  0  0  0  0  0  0  0  0
   -0.2341  -53.2267  -19.7958 C   0  0  0  0  0  0  0  0  0  0  0  0
    0.3865  -52.9068  -23.9943 N   0  0  0  0  0  0  0  0  0  0  0  0
   -0.6826  -52.5011  -24.8619 C   0  0  0  0  0  0  0  0  0  0  0  0
   -0.2415  -51.3873  -25.7967 C   0  0  0  0  0  0  0  0  0  0  0  0
    0.9404  -51.9851  -26.5685 C   0  0  0  0  0  0  0  0  0  0  0  0
    2.0696  -52.0560  -25.5453 C   0  0  0  0  0  0  0  0  0  0  0  0
    1.6936  -53.1798  -24.6101 C   0  0  0  0  0  0  0  0  0  0  0  0
    2.1969  -50.7946  -24.9316 N   0  0  0  0  0  0  0  0  0  0  0  0
    2.5376  -49.7229  -25.7978 C   0  0  0  0  0  0  0  0  0  0  0  0
    4.0475  -49.6540  -25.9025 C   0  0  0  0  0  0  0  0  0  0  0  0
    4.6591  -49.3182  -24.6477 N   0  0  0  0  0  0  0  0  0  0  0  0
    6.0390  -49.6253  -24.5343 C   0  0  0  0  0  0  0  0  0  0  0  0
    3.8482  -49.6152  -23.5059 C   0  0  0  0  0  0  0  0  0  0  0  0
    2.8509  -50.7121  -23.6849 C   0  0  0  0  0  0  0  0  0  0  0  0
    3.0350  -51.5852  -19.9584 C   0  0  0  0  0  0  0  0  0  0  0  0
    1.8678  -52.1679  -19.4528 O   0  0  0  0  0  0  0  0  0  0  0  0
 44 45  1  0  0  0
 45 25  1  0  0  0
 25 26  2  0  0  0
 26 27  1  0  0  0
 27 28  2  0  0  0
 28 29  1  0  0  0
 29 30  2  0  0  0
 30  1  1  0  0  0
  1  3  1  0  0  0
  3  4  2  0  0  0
  4  5  1  0  0  0
  5  6  2  0  0  0
  6  7  1  0  0  0
  6  8  1  0  0  0
  8 10  1  0  0  0
 10 12  1  0  0  0
 12 13  2  0  0  0
 13 14  1  0  0  0
 14 15  2  0  0  0
 15 16  1  0  0  0
 16 17  2  0  0  0
 17 18  1  0  0  0
 18 19  2  0  0  0
 18 20  2  0  0  0
 18 21  1  0  0  0
 21 22  1  0  0  0
 21 23  1  0  0  0
 21 24  1  0  0  0
  8  9  2  0  0  0
 27 31  1  0  0  0
 31 32  1  0  0  0
 32 33  1  0  0  0
 33 34  1  0  0  0
 34 35  1  0  0  0
 35 36  1  0  0  0
 35 37  1  0  0  0
 37 38  1  0  0  0
 38 39  1  0  0  0
 39 40  1  0  0  0
 40 41  1  0  0  0
 40 42  1  0  0  0
 42 43  1  0  0  0
 30 25  1  0  0  0
  9  3  1  0  0  0
 36 31  1  0  0  0
 43 37  1  0  0  0
 17 12  1  0  0  0
  1  2  1  0  0  0
 10 11  1  0  0  0
M  END
> <minimizedAffinity>
-7.96721

> <CNNscore>
0.1834036559

> <CNNaffinity>
7.3191375732

> <CNN_VS>
1.3423565626

> <CNNaffinity_variance>
0.3634752333

$$$$
[H]c1nc(N([H])c2c([H])c([H])c(N3C([H])([H])C([H])([H])C([H])([H])[C@@]([H])(N4C([H])([H])C([H])([H])N(C([H])([H])[H])C([H])([H])C4([H])[H])C3([H])[H])c([H])c2OC([H])([H])[H])nc(N([H])c2c([H])c([H])c([H])c([H])c2S(=O)(=O)C(C([H])([H])[H])(C([H])([H])[H])C([H])([H])[H])c1Cl


 45 49  0  0  0  0  0  0  0  0999 V2000
    0.4793  -53.4002  -20.8760 N   0  0  0  0  0  0  0  0  0  0  0  0
    0.4596  -54.4796  -20.7600 H   0  0  0  0  0  0  0  0  0  0  0  0
    0.5389  -52.9684  -22.2091 C   0  0  0  0  0  0  0  0  0  0  0  0
   -0.5743  -53.2507  -22.9692 N   0  0  0  0  0  0  0  0  0  0  0  0
   -0.6608  -52.8603  -24.2335 C   0  0  0  0  0  0  0  0  0  0  0  0
    0.3907  -52.1601  -24.7799 C   0  0  0  0  0  0  0  0  0  0  0  0
    0.3157  -51.6366  -26.4612 Cl  0  0  0  0  0  0  0  0  0  0  0  0
    1.5483  -51.8446  -24.0465 C   0  0  0  0  0  0  0  0  0  0  0  0
    1.5287  -52.2870  -22.7861 N   0  0  0  0  0  0  0  0  0  0  0  0
    2.5900  -51.1421  -24.6887 N   0  0  0  0  0  0  0  0  0  0  0  0
    2.2571  -50.5275  -25.4904 H   0  0  0  0  0  0  0  0  0  0  0  0
    3.9560  -51.1396  -24.4688 C   0  0  0  0  0  0  0  0  0  0  0  0
    4.6901  -52.2828  -24.3442 C   0  0  0  0  0  0  0  0  0  0  0  0
    6.0809  -52.3092  -24.1837 C   0  0  0  0  0  0  0  0  0  0  0  0
    6.7585  -51.1230  -24.1466 C   0  0  0  0  0  0  0  0  0  0  0  0
    6.0427  -49.9753  -24.2658 C   0  0  0  0  0  0  0  0  0  0  0  0
    4.6450  -49.9234  -24.4262 C   0  0  0  0  0  0  0  0  0  0  0  0
    3.9190  -48.3659  -24.4118 S   0  0  0  0  0  0  0  0  0  0  0  0
    4.9785  -47.3561  -24.9203 O   0  0  0  0  0  0  0  0  0  0  0  0
    2.7985  -48.1821  -25.4023 O   0  0  0  0  0  0  0  0  0  0  0  0
    3.4203  -47.7583  -22.8497 C   0  0  0  0  0  0  0  0  0  0  0  0
    2.2316  -48.5747  -22.3062 C   0  0  0  0  0  0  0  0  0  0  0  0
    4.4442  -47.7013  -21.7838 C   0  0  0  0  0  0  0  0  0  0  0  0
    2.7830  -46.3400  -23.0173 C   0  0  0  0  0  0  0  0  0  0  0  0
    1.5236  -51.9119  -19.2820 C   0  0  0  0  0  0  0  0  0  0  0  0
    1.4833  -51.1651  -18.1191 C   0  0  0  0  0  0  0  0  0  0  0  0
    0.3954  -51.1506  -17.2841 C   0  0  0  0  0  0  0  0  0  0  0  0
   -0.6798  -51.9331  -17.6701 C   0  0  0  0  0  0  0  0  0  0  0  0
   -0.6344  -52.6775  -18.8340 C   0  0  0  0  0  0  0  0  0  0  0  0
    0.4444  -52.7013  -19.6733 C   0  0  0  0  0  0  0  0  0  0  0  0
    0.3817  -50.3972  -16.0954 N   0  0  0  0  0  0  0  0  0  0  0  0
    0.7351  -50.9968  -14.8400 C   0  0  0  0  0  0  0  0  0  0  0  0
    1.7478  -50.1483  -14.0894 C   0  0  0  0  0  0  0  0  0  0  0  0
    1.0519  -48.7937  -13.9130 C   0  0  0  0  0  0  0  0  0  0  0  0
    1.0444  -48.1820  -15.3104 C   0  0  0  0  0  0  0  0  0  0  0  0
    0.0200  -48.9720  -16.0887 C   0  0  0  0  0  0  0  0  0  0  0  0
    2.3523  -48.2377  -15.8300 N   0  0  0  0  0  0  0  0  0  0  0  0
    3.3352  -47.5252  -15.0942 C   0  0  0  0  0  0  0  0  0  0  0  0
    3.3623  -46.0947  -15.5928 C   0  0  0  0  0  0  0  0  0  0  0  0
    3.7953  -46.0092  -16.9590 N   0  0  0  0  0  0  0  0  0  0  0  0
    3.4701  -44.8045  -17.6330 C   0  0  0  0  0  0  0  0  0  0  0  0
    3.6184  -47.2191  -17.7035 C   0  0  0  0  0  0  0  0  0  0  0  0
    2.5315  -48.1239  -17.2242 C   0  0  0  0  0  0  0  0  0  0  0  0
    3.6867  -51.0112  -19.8096 C   0  0  0  0  0  0  0  0  0  0  0  0
    2.6426  -51.8975  -20.0957 O   0  0  0  0  0  0  0  0  0  0  0  0
 44 45  1  0  0  0
 45 25  1  0  0  0
 25 26  2  0  0  0
 26 27  1  0  0  0
 27 28  2  0  0  0
 28 29  1  0  0  0
 29 30  2  0  0  0
 30  1  1  0  0  0
  1  3  1  0  0  0
  3  4  2  0  0  0
  4  5  1  0  0  0
  5  6  2  0  0  0
  6  7  1  0  0  0
  6  8  1  0  0  0
  8 10  1  0  0  0
 10 12  1  0  0  0
 12 13  2  0  0  0
 13 14  1  0  0  0
 14 15  2  0  0  0
 15 16  1  0  0  0
 16 17  2  0  0  0
 17 18  1  0  0  0
 18 19  2  0  0  0
 18 20  2  0  0  0
 18 21  1  0  0  0
 21 22  1  0  0  0
 21 23  1  0  0  0
 21 24  1  0  0  0
  8  9  2  0  0  0
 27 31  1  0  0  0
 31 32  1  0  0  0
 32 33  1  0  0  0
 33 34  1  0  0  0
 34 35  1  0  0  0
 35 36  1  0  0  0
 35 37  1  0  0  0
 37 38  1  0  0  0
 38 39  1  0  0  0
 39 40  1  0  0  0
 40 41  1  0  0  0
 40 42  1  0  0  0
 42 43  1  0  0  0
 30 25  1  0  0  0
  9  3  1  0  0  0
 36 31  1  0  0  0
 43 37  1  0  0  0
 17 12  1  0  0  0
  1  2  1  0  0  0
 10 11  1  0  0  0
M  END
> <minimizedAffinity>
-6.85749

> <CNNscore>
0.1555818617

> <CNNaffinity>
7.3035020828

> <CNN_VS>
1.1362924576

> <CNNaffinity_variance>
0.1448854506

$$$$
[H]c1nc(N([H])c2c([H])c([H])c(N3C([H])([H])C([H])([H])C([H])([H])[C@@]([H])(N4C([H])([H])C([H])([H])N(C([H])([H])[H])C([H])([H])C4([H])[H])C3([H])[H])c([H])c2OC([H])([H])[H])nc(N([H])c2c([H])c([H])c([H])c([H])c2S(=O)(=O)C(C([H])([H])[H])(C([H])([H])[H])C([H])([H])[H])c1Cl


 45 49  0  0  0  0  0  0  0  0999 V2000
   -1.3229  -53.4161  -18.3274 N   0  0  0  0  0  0  0  0  0  0  0  0
   -1.6001  -54.4636  -18.3968 H   0  0  0  0  0  0  0  0  0  0  0  0
   -1.9690  -52.7199  -17.2954 C   0  0  0  0  0  0  0  0  0  0  0  0
   -3.2984  -53.0322  -17.1174 N   0  0  0  0  0  0  0  0  0  0  0  0
   -4.0123  -52.4743  -16.1493 C   0  0  0  0  0  0  0  0  0  0  0  0
   -3.3967  -51.5687  -15.3152 C   0  0  0  0  0  0  0  0  0  0  0  0
   -4.3180  -50.7979  -14.0256 Cl  0  0  0  0  0  0  0  0  0  0  0  0
   -2.0421  -51.2172  -15.4530 C   0  0  0  0  0  0  0  0  0  0  0  0
   -1.4209  -51.8375  -16.4599 N   0  0  0  0  0  0  0  0  0  0  0  0
   -1.4936  -50.2637  -14.5692 N   0  0  0  0  0  0  0  0  0  0  0  0
   -1.1965  -50.6728  -13.6335 H   0  0  0  0  0  0  0  0  0  0  0  0
   -1.3042  -48.8999  -14.7057 C   0  0  0  0  0  0  0  0  0  0  0  0
   -2.3345  -48.0190  -14.8600 C   0  0  0  0  0  0  0  0  0  0  0  0
   -2.1750  -46.6301  -14.9377 C   0  0  0  0  0  0  0  0  0  0  0  0
   -0.9138  -46.1101  -14.8564 C   0  0  0  0  0  0  0  0  0  0  0  0
    0.1237  -46.9732  -14.7062 C   0  0  0  0  0  0  0  0  0  0  0  0
   -0.0114  -48.3724  -14.6274 C   0  0  0  0  0  0  0  0  0  0  0  0
    1.4399  -49.2915  -14.5840 S   0  0  0  0  0  0  0  0  0  0  0  0
    2.4228  -48.5611  -13.6346 O   0  0  0  0  0  0  0  0  0  0  0  0
    1.3113  -50.6449  -13.9341 O   0  0  0  0  0  0  0  0  0  0  0  0
    2.3002  -49.4523  -16.0979 C   0  0  0  0  0  0  0  0  0  0  0  0
    3.3359  -48.3219  -16.2541 C   0  0  0  0  0  0  0  0  0  0  0  0
    2.9977  -50.7318  -16.3511 C   0  0  0  0  0  0  0  0  0  0  0  0
    1.3278  -49.1606  -17.2876 C   0  0  0  0  0  0  0  0  0  0  0  0
   -0.5104  -53.4344  -20.6046 C   0  0  0  0  0  0  0  0  0  0  0  0
    0.3686  -52.9969  -21.5781 C   0  0  0  0  0  0  0  0  0  0  0  0
    1.3986  -52.1311  -21.3125 C   0  0  0  0  0  0  0  0  0  0  0  0
    1.5163  -51.7082  -19.9993 C   0  0  0  0  0  0  0  0  0  0  0  0
    0.6345  -52.1485  -19.0300 C   0  0  0  0  0  0  0  0  0  0  0  0
   -0.3947  -53.0123  -19.2820 C   0  0  0  0  0  0  0  0  0  0  0  0
    2.2934  -51.7120  -22.3148 N   0  0  0  0  0  0  0  0  0  0  0  0
    1.8804  -51.6424  -23.6878 C   0  0  0  0  0  0  0  0  0  0  0  0
    2.2553  -50.3073  -24.3092 C   0  0  0  0  0  0  0  0  0  0  0  0
    3.7785  -50.2305  -24.1541 C   0  0  0  0  0  0  0  0  0  0  0  0
    4.0006  -50.0011  -22.6625 C   0  0  0  0  0  0  0  0  0  0  0  0
    3.6749  -51.3186  -22.0011 C   0  0  0  0  0  0  0  0  0  0  0  0
    3.1970  -48.9197  -22.2518 N   0  0  0  0  0  0  0  0  0  0  0  0
    3.4261  -47.6936  -22.9294 C   0  0  0  0  0  0  0  0  0  0  0  0
    4.5306  -46.9478  -22.2087 C   0  0  0  0  0  0  0  0  0  0  0  0
    4.1431  -46.5644  -20.8804 N   0  0  0  0  0  0  0  0  0  0  0  0
    5.2059  -46.2409  -19.9989 C   0  0  0  0  0  0  0  0  0  0  0  0
    3.0831  -47.3546  -20.3314 C   0  0  0  0  0  0  0  0  0  0  0  0
    2.9576  -48.7402  -20.8736 C   0  0  0  0  0  0  0  0  0  0  0  0
   -1.6033  -54.8557  -22.2027 C   0  0  0  0  0  0  0  0  0  0  0  0
   -1.5362  -54.3090  -20.9166 O   0  0  0  0  0  0  0  0  0  0  0  0
 44 45  1  0  0  0
 45 25  1  0  0  0
 25 26  2  0  0  0
 26 27  1  0  0  0
 27 28  2  0  0  0
 28 29  1  0  0  0
 29 30  2  0  0  0
 30  1  1  0  0  0
  1  3  1  0  0  0
  3  4  2  0  0  0
  4  5  1  0  0  0
  5  6  2  0  0  0
  6  7  1  0  0  0
  6  8  1  0  0  0
  8 10  1  0  0  0
 10 12  1  0  0  0
 12 13  2  0  0  0
 13 14  1  0  0  0
 14 15  2  0  0  0
 15 16  1  0  0  0
 16 17  2  0  0  0
 17 18  1  0  0  0
 18 19  2  0  0  0
 18 20  2  0  0  0
 18 21  1  0  0  0
 21 22  1  0  0  0
 21 23  1  0  0  0
 21 24  1  0  0  0
  8  9  2  0  0  0
 27 31  1  0  0  0
 31 32  1  0  0  0
 32 33  1  0  0  0
 33 34  1  0  0  0
 34 35  1  0  0  0
 35 36  1  0  0  0
 35 37  1  0  0  0
 37 38  1  0  0  0
 38 39  1  0  0  0
 39 40  1  0  0  0
 40 41  1  0  0  0
 40 42  1  0  0  0
 42 43  1  0  0  0
 30 25  1  0  0  0
  9  3  1  0  0  0
 36 31  1  0  0  0
 43 37  1  0  0  0
 17 12  1  0  0  0
  1  2  1  0  0  0
 10 11  1  0  0  0
M  END
> <minimizedAffinity>
-7.22513

> <CNNscore>
0.1310755610

> <CNNaffinity>
7.2588033676

> <CNN_VS>
0.9514517188

> <CNNaffinity_variance>
0.3188488483

$$$$
[H]c1nc(N([H])c2c([H])c([H])c(N3C([H])([H])C([H])([H])C([H])([H])[C@@]([H])(N4C([H])([H])C([H])([H])N(C([H])([H])[H])C([H])([H])C4([H])[H])C3([H])[H])c([H])c2OC([H])([H])[H])nc(N([H])c2c([H])c([H])c([H])c([H])c2S(=O)(=O)C(C([H])([H])[H])(C([H])([H])[H])C([H])([H])[H])c1Cl


 45 49  0  0  0  0  0  0  0  0999 V2000
    0.7969  -53.1294  -23.4538 N   0  0  0  0  0  0  0  0  0  0  0  0
    0.5114  -53.9846  -24.0589 H   0  0  0  0  0  0  0  0  0  0  0  0
    0.2333  -53.1229  -22.1695 C   0  0  0  0  0  0  0  0  0  0  0  0
   -1.0448  -53.6288  -22.0854 N   0  0  0  0  0  0  0  0  0  0  0  0
   -1.6746  -53.7164  -20.9218 C   0  0  0  0  0  0  0  0  0  0  0  0
   -1.0233  -53.2898  -19.7867 C   0  0  0  0  0  0  0  0  0  0  0  0
   -1.8346  -53.3794  -18.2246 Cl  0  0  0  0  0  0  0  0  0  0  0  0
    0.2820  -52.7676  -19.8180 C   0  0  0  0  0  0  0  0  0  0  0  0
    0.8193  -52.7245  -21.0404 N   0  0  0  0  0  0  0  0  0  0  0  0
    0.8697  -52.3325  -18.6112 N   0  0  0  0  0  0  0  0  0  0  0  0
    1.5222  -53.0493  -18.1735 H   0  0  0  0  0  0  0  0  0  0  0  0
    0.7206  -51.1554  -17.8994 C   0  0  0  0  0  0  0  0  0  0  0  0
   -0.3509  -50.9064  -17.0923 C   0  0  0  0  0  0  0  0  0  0  0  0
   -0.4958  -49.7517  -16.3137 C   0  0  0  0  0  0  0  0  0  0  0  0
    0.4895  -48.8056  -16.3557 C   0  0  0  0  0  0  0  0  0  0  0  0
    1.5615  -49.0359  -17.1567 C   0  0  0  0  0  0  0  0  0  0  0  0
    1.7286  -50.1874  -17.9493 C   0  0  0  0  0  0  0  0  0  0  0  0
    3.0874  -50.2159  -19.0009 S   0  0  0  0  0  0  0  0  0  0  0  0
    4.3003  -49.6706  -18.2057 O   0  0  0  0  0  0  0  0  0  0  0  0
    3.5538  -51.5939  -19.3933 O   0  0  0  0  0  0  0  0  0  0  0  0
    2.9845  -49.2085  -20.4265 C   0  0  0  0  0  0  0  0  0  0  0  0
    4.2370  -49.3870  -21.3065 C   0  0  0  0  0  0  0  0  0  0  0  0
    1.8016  -49.3813  -21.2975 C   0  0  0  0  0  0  0  0  0  0  0  0
    3.0959  -47.7037  -20.0150 C   0  0  0  0  0  0  0  0  0  0  0  0
    1.1656  -51.3717  -25.0727 C   0  0  0  0  0  0  0  0  0  0  0  0
    1.9884  -50.4424  -25.6819 C   0  0  0  0  0  0  0  0  0  0  0  0
    3.3186  -50.3144  -25.3735 C   0  0  0  0  0  0  0  0  0  0  0  0
    3.8054  -51.1754  -24.4046 C   0  0  0  0  0  0  0  0  0  0  0  0
    2.9784  -52.1025  -23.7984 C   0  0  0  0  0  0  0  0  0  0  0  0
    1.6517  -52.2406  -24.0982 C   0  0  0  0  0  0  0  0  0  0  0  0
    4.1431  -49.3736  -26.0186 N   0  0  0  0  0  0  0  0  0  0  0  0
    3.9764  -49.0836  -27.4145 C   0  0  0  0  0  0  0  0  0  0  0  0
    3.9139  -47.5858  -27.6628 C   0  0  0  0  0  0  0  0  0  0  0  0
    5.2417  -47.0538  -27.1115 C   0  0  0  0  0  0  0  0  0  0  0  0
    5.1007  -47.1673  -25.5969 C   0  0  0  0  0  0  0  0  0  0  0  0
    5.1943  -48.6435  -25.2948 C   0  0  0  0  0  0  0  0  0  0  0  0
    3.8879  -46.5620  -25.2140 N   0  0  0  0  0  0  0  0  0  0  0  0
    3.8192  -45.1563  -25.3986 C   0  0  0  0  0  0  0  0  0  0  0  0
    4.3695  -44.4835  -24.1576 C   0  0  0  0  0  0  0  0  0  0  0  0
    3.5579  -44.7403  -23.0014 N   0  0  0  0  0  0  0  0  0  0  0  0
    4.1832  -44.5149  -21.7486 C   0  0  0  0  0  0  0  0  0  0  0  0
    2.7530  -45.9197  -23.1045 C   0  0  0  0  0  0  0  0  0  0  0  0
    3.2707  -46.9819  -24.0175 C   0  0  0  0  0  0  0  0  0  0  0  0
   -0.5299  -52.0939  -26.6130 C   0  0  0  0  0  0  0  0  0  0  0  0
   -0.1718  -51.4670  -25.4146 O   0  0  0  0  0  0  0  0  0  0  0  0
 44 45  1  0  0  0
 45 25  1  0  0  0
 25 26  2  0  0  0
 26 27  1  0  0  0
 27 28  2  0  0  0
 28 29  1  0  0  0
 29 30  2  0  0  0
 30  1  1  0  0  0
  1  3  1  0  0  0
  3  4  2  0  0  0
  4  5  1  0  0  0
  5  6  2  0  0  0
  6  7  1  0  0  0
  6  8  1  0  0  0
  8 10  1  0  0  0
 10 12  1  0  0  0
 12 13  2  0  0  0
 13 14  1  0  0  0
 14 15  2  0  0  0
 15 16  1  0  0  0
 16 17  2  0  0  0
 17 18  1  0  0  0
 18 19  2  0  0  0
 18 20  2  0  0  0
 18 21  1  0  0  0
 21 22  1  0  0  0
 21 23  1  0  0  0
 21 24  1  0  0  0
  8  9  2  0  0  0
 27 31  1  0  0  0
 31 32  1  0  0  0
 32 33  1  0  0  0
 33 34  1  0  0  0
 34 35  1  0  0  0
 35 36  1  0  0  0
 35 37  1  0  0  0
 37 38  1  0  0  0
 38 39  1  0  0  0
 39 40  1  0  0  0
 40 41  1  0  0  0
 40 42  1  0  0  0
 42 43  1  0  0  0
 30 25  1  0  0  0
  9  3  1  0  0  0
 36 31  1  0  0  0
 43 37  1  0  0  0
 17 12  1  0  0  0
  1  2  1  0  0  0
 10 11  1  0  0  0
M  END
> <minimizedAffinity>
-7.60114

> <CNNscore>
0.1219944581

> <CNNaffinity>
7.2644262314

> <CNN_VS>
0.8862197399

> <CNNaffinity_variance>
0.4107976854

$$$$
[H]c1nc(N([H])c2c([H])c([H])c(N3C([H])([H])C([H])([H])C([H])([H])[C@@]([H])(N4C([H])([H])C([H])([H])OC([H])([H])C4([H])[H])C3([H])[H])c([H])c2OC([H])([H])[H])nc(N([H])c2c([H])c([H])c([H])c([H])c2S(=O)(=O)C(C([H])([H])[H])(C([H])([H])[H])C([H])([H])[H])c1Cl


 44 48  0  0  0  0  0  0  0  0999 V2000
    0.3837  -53.4949  -20.6302 N   0  0  0  0  0  0  0  0  0  0  0  0
    0.6736  -54.5601  -20.5651 H   0  0  0  0  0  0  0  0  0  0  0  0
    0.4571  -53.0043  -21.9218 C   0  0  0  0  0  0  0  0  0  0  0  0
   -0.2198  -53.6841  -22.9109 N   0  0  0  0  0  0  0  0  0  0  0  0
   -0.1781  -53.3175  -24.1796 C   0  0  0  0  0  0  0  0  0  0  0  0
    0.5452  -52.2411  -24.5491 C   0  0  0  0  0  0  0  0  0  0  0  0
    0.6582  -51.6805  -26.2062 Cl  0  0  0  0  0  0  0  0  0  0  0  0
    1.2557  -51.5011  -23.5856 C   0  0  0  0  0  0  0  0  0  0  0  0
    1.1449  -51.9597  -22.3292 N   0  0  0  0  0  0  0  0  0  0  0  0
    2.1092  -50.4625  -23.9881 N   0  0  0  0  0  0  0  0  0  0  0  0
    2.4844  -50.5739  -24.9751 H   0  0  0  0  0  0  0  0  0  0  0  0
    2.5001  -49.3606  -23.2239 C   0  0  0  0  0  0  0  0  0  0  0  0
    1.8281  -48.9505  -22.0816 C   0  0  0  0  0  0  0  0  0  0  0  0
    2.1496  -47.8474  -21.3302 C   0  0  0  0  0  0  0  0  0  0  0  0
    3.2086  -47.0866  -21.7267 C   0  0  0  0  0  0  0  0  0  0  0  0
    3.8930  -47.4550  -22.8445 C   0  0  0  0  0  0  0  0  0  0  0  0
    3.5870  -48.5784  -23.6329 C   0  0  0  0  0  0  0  0  0  0  0  0
    4.5025  -48.9061  -25.0546 S   0  0  0  0  0  0  0  0  0  0  0  0
    3.6388  -49.1693  -26.2821 O   0  0  0  0  0  0  0  0  0  0  0  0
    5.1456  -50.2875  -24.8136 O   0  0  0  0  0  0  0  0  0  0  0  0
    5.8293  -47.8300  -25.4090 C   0  0  0  0  0  0  0  0  0  0  0  0
    5.4504  -46.4141  -25.6081 C   0  0  0  0  0  0  0  0  0  0  0  0
    6.9644  -47.9866  -24.3971 C   0  0  0  0  0  0  0  0  0  0  0  0
    6.4931  -48.2644  -26.7500 C   0  0  0  0  0  0  0  0  0  0  0  0
    0.9242  -52.0044  -18.7903 C   0  0  0  0  0  0  0  0  0  0  0  0
    0.5903  -51.3531  -17.6220 C   0  0  0  0  0  0  0  0  0  0  0  0
   -0.6257  -51.5043  -16.9969 C   0  0  0  0  0  0  0  0  0  0  0  0
   -1.5276  -52.3583  -17.6013 C   0  0  0  0  0  0  0  0  0  0  0  0
   -1.1852  -53.0223  -18.7940 C   0  0  0  0  0  0  0  0  0  0  0  0
   -0.0014  -52.8872  -19.4210 C   0  0  0  0  0  0  0  0  0  0  0  0
   -0.9497  -50.8194  -15.7841 N   0  0  0  0  0  0  0  0  0  0  0  0
   -1.8369  -51.4619  -14.8159 C   0  0  0  0  0  0  0  0  0  0  0  0
   -2.7029  -50.4314  -14.1598 C   0  0  0  0  0  0  0  0  0  0  0  0
   -2.8716  -49.1874  -15.0023 C   0  0  0  0  0  0  0  0  0  0  0  0
   -1.5625  -48.4898  -15.1743 C   0  0  0  0  0  0  0  0  0  0  0  0
   -0.4501  -49.5273  -15.4046 C   0  0  0  0  0  0  0  0  0  0  0  0
   -1.1142  -47.5733  -14.2608 N   0  0  0  0  0  0  0  0  0  0  0  0
   -1.8795  -46.8510  -13.3635 C   0  0  0  0  0  0  0  0  0  0  0  0
   -1.9458  -45.3922  -13.7080 C   0  0  0  0  0  0  0  0  0  0  0  0
   -0.6749  -44.8925  -13.9343 O   0  0  0  0  0  0  0  0  0  0  0  0
    0.3625  -45.7506  -13.6258 C   0  0  0  0  0  0  0  0  0  0  0  0
    0.2184  -47.0847  -14.3449 C   0  0  0  0  0  0  0  0  0  0  0  0
    3.0684  -50.8636  -19.2482 C   0  0  0  0  0  0  0  0  0  0  0  0
    2.1115  -51.8457  -19.3826 O   0  0  0  0  0  0  0  0  0  0  0  0
 43 44  1  0  0  0
 44 25  1  0  0  0
 25 26  2  0  0  0
 26 27  1  0  0  0
 27 28  2  0  0  0
 28 29  1  0  0  0
 29 30  2  0  0  0
 30  1  1  0  0  0
  1  3  1  0  0  0
  3  4  2  0  0  0
  4  5  1  0  0  0
  5  6  2  0  0  0
  6  7  1  0  0  0
  6  8  1  0  0  0
  8 10  1  0  0  0
 10 12  1  0  0  0
 12 13  2  0  0  0
 13 14  1  0  0  0
 14 15  2  0  0  0
 15 16  1  0  0  0
 16 17  2  0  0  0
 17 18  1  0  0  0
 18 19  2  0  0  0
 18 20  2  0  0  0
 18 21  1  0  0  0
 21 22  1  0  0  0
 21 23  1  0  0  0
 21 24  1  0  0  0
  8  9  2  0  0  0
 27 31  1  0  0  0
 31 32  1  0  0  0
 32 33  1  0  0  0
 33 34  1  0  0  0
 34 35  1  0  0  0
 35 36  1  0  0  0
 35 37  1  0  0  0
 37 38  1  0  0  0
 38 39  1  0  0  0
 39 40  1  0  0  0
 40 41  1  0  0  0
 41 42  1  0  0  0
 30 25  1  0  0  0
  9  3  1  0  0  0
 36 31  1  0  0  0
 42 37  1  0  0  0
 17 12  1  0  0  0
  1  2  1  0  0  0
 10 11  1  0  0  0
M  END
> <minimizedAffinity>
-6.57079

> <CNNscore>
0.2448882163

> <CNNaffinity>
7.1680536270

> <CNN_VS>
1.7553718090

> <CNNaffinity_variance>
0.1514689624

$$$$
[H]c1nc(N([H])c2c([H])c([H])c(N3C([H])([H])C([H])([H])C([H])([H])[C@@]([H])(N4C([H])([H])C([H])([H])OC([H])([H])C4([H])[H])C3([H])[H])c([H])c2OC([H])([H])[H])nc(N([H])c2c([H])c([H])c([H])c([H])c2S(=O)(=O)C(C([H])([H])[H])(C([H])([H])[H])C([H])([H])[H])c1Cl


 44 48  0  0  0  0  0  0  0  0999 V2000
    0.4681  -53.6636  -21.3471 N   0  0  0  0  0  0  0  0  0  0  0  0
    0.7322  -54.7366  -21.3060 H   0  0  0  0  0  0  0  0  0  0  0  0
    0.4320  -53.1765  -22.6416 C   0  0  0  0  0  0  0  0  0  0  0  0
   -0.5932  -53.5954  -23.4615 N   0  0  0  0  0  0  0  0  0  0  0  0
   -0.6910  -53.2181  -24.7239 C   0  0  0  0  0  0  0  0  0  0  0  0
    0.2320  -52.3919  -25.2565 C   0  0  0  0  0  0  0  0  0  0  0  0
    0.1831  -51.8382  -26.9190 Cl  0  0  0  0  0  0  0  0  0  0  0  0
    1.3015  -51.9246  -24.4698 C   0  0  0  0  0  0  0  0  0  0  0  0
    1.3052  -52.3690  -23.2035 N   0  0  0  0  0  0  0  0  0  0  0  0
    2.3290  -51.1718  -25.0588 N   0  0  0  0  0  0  0  0  0  0  0  0
    2.0066  -50.5670  -25.8699 H   0  0  0  0  0  0  0  0  0  0  0  0
    3.6771  -51.1714  -24.6936 C   0  0  0  0  0  0  0  0  0  0  0  0
    4.2404  -52.1296  -23.8635 C   0  0  0  0  0  0  0  0  0  0  0  0
    5.5470  -52.1389  -23.4422 C   0  0  0  0  0  0  0  0  0  0  0  0
    6.3651  -51.1336  -23.8640 C   0  0  0  0  0  0  0  0  0  0  0  0
    5.8490  -50.1723  -24.6784 C   0  0  0  0  0  0  0  0  0  0  0  0
    4.5164  -50.1373  -25.1258 C   0  0  0  0  0  0  0  0  0  0  0  0
    3.9757  -48.8351  -26.1150 S   0  0  0  0  0  0  0  0  0  0  0  0
    2.6561  -48.2309  -25.6504 O   0  0  0  0  0  0  0  0  0  0  0  0
    3.5760  -49.4835  -27.4565 O   0  0  0  0  0  0  0  0  0  0  0  0
    5.1477  -47.6082  -26.5214 C   0  0  0  0  0  0  0  0  0  0  0  0
    5.7678  -46.9274  -25.3639 C   0  0  0  0  0  0  0  0  0  0  0  0
    6.1904  -48.1334  -27.5083 C   0  0  0  0  0  0  0  0  0  0  0  0
    4.4418  -46.4765  -27.3269 C   0  0  0  0  0  0  0  0  0  0  0  0
    1.2299  -52.1989  -19.5658 C   0  0  0  0  0  0  0  0  0  0  0  0
    1.0284  -51.5375  -18.3730 C   0  0  0  0  0  0  0  0  0  0  0  0
   -0.1310  -51.6427  -17.6404 C   0  0  0  0  0  0  0  0  0  0  0  0
   -1.1163  -52.4599  -18.1596 C   0  0  0  0  0  0  0  0  0  0  0  0
   -0.9090  -53.1343  -19.3773 C   0  0  0  0  0  0  0  0  0  0  0  0
    0.2176  -53.0439  -20.1090 C   0  0  0  0  0  0  0  0  0  0  0  0
   -0.3174  -50.9483  -16.4043 N   0  0  0  0  0  0  0  0  0  0  0  0
   -1.6462  -50.9174  -15.7954 C   0  0  0  0  0  0  0  0  0  0  0  0
   -1.8688  -49.5941  -15.1307 C   0  0  0  0  0  0  0  0  0  0  0  0
   -1.0062  -48.4962  -15.7106 C   0  0  0  0  0  0  0  0  0  0  0  0
    0.4388  -48.7779  -15.4600 C   0  0  0  0  0  0  0  0  0  0  0  0
    0.7172  -50.2765  -15.6685 C   0  0  0  0  0  0  0  0  0  0  0  0
    1.0551  -48.3823  -14.3028 N   0  0  0  0  0  0  0  0  0  0  0  0
    0.6599  -47.3617  -13.4573 C   0  0  0  0  0  0  0  0  0  0  0  0
    1.5931  -46.1875  -13.4979 C   0  0  0  0  0  0  0  0  0  0  0  0
    2.9028  -46.6075  -13.3424 O   0  0  0  0  0  0  0  0  0  0  0  0
    3.0622  -47.9378  -13.0068 C   0  0  0  0  0  0  0  0  0  0  0  0
    2.3619  -48.8540  -14.0006 C   0  0  0  0  0  0  0  0  0  0  0  0
    3.2565  -51.0418  -20.3802 C   0  0  0  0  0  0  0  0  0  0  0  0
    2.3642  -52.0851  -20.2631 O   0  0  0  0  0  0  0  0  0  0  0  0
 43 44  1  0  0  0
 44 25  1  0  0  0
 25 26  2  0  0  0
 26 27  1  0  0  0
 27 28  2  0  0  0
 28 29  1  0  0  0
 29 30  2  0  0  0
 30  1  1  0  0  0
  1  3  1  0  0  0
  3  4  2  0  0  0
  4  5  1  0  0  0
  5  6  2  0  0  0
  6  7  1  0  0  0
  6  8  1  0  0  0
  8 10  1  0  0  0
 10 12  1  0  0  0
 12 13  2  0  0  0
 13 14  1  0  0  0
 14 15  2  0  0  0
 15 16  1  0  0  0
 16 17  2  0  0  0
 17 18  1  0  0  0
 18 19  2  0  0  0
 18 20  2  0  0  0
 18 21  1  0  0  0
 21 22  1  0  0  0
 21 23  1  0  0  0
 21 24  1  0  0  0
  8  9  2  0  0  0
 27 31  1  0  0  0
 31 32  1  0  0  0
 32 33  1  0  0  0
 33 34  1  0  0  0
 34 35  1  0  0  0
 35 36  1  0  0  0
 35 37  1  0  0  0
 37 38  1  0  0  0
 38 39  1  0  0  0
 39 40  1  0  0  0
 40 41  1  0  0  0
 41 42  1  0  0  0
 30 25  1  0  0  0
  9  3  1  0  0  0
 36 31  1  0  0  0
 42 37  1  0  0  0
 17 12  1  0  0  0
  1  2  1  0  0  0
 10 11  1  0  0  0
M  END
> <minimizedAffinity>
-6.75593

> <CNNscore>
0.2258853465

> <CNNaffinity>
7.2043213844

> <CNN_VS>
1.6273506880

> <CNNaffinity_variance>
0.1364751458

$$$$
[H]c1nc(N([H])c2c([H])c([H])c(N3C([H])([H])C([H])([H])C([H])([H])[C@@]([H])(N4C([H])([H])C([H])([H])OC([H])([H])C4([H])[H])C3([H])[H])c([H])c2OC([H])([H])[H])nc(N([H])c2c([H])c([H])c([H])c([H])c2S(=O)(=O)C(C([H])([H])[H])(C([H])([H])[H])C([H])([H])[H])c1Cl


 44 48  0  0  0  0  0  0  0  0999 V2000
    0.5625  -52.9750  -21.2784 N   0  0  0  0  0  0  0  0  0  0  0  0
   -0.0114  -53.8727  -20.9825 H   0  0  0  0  0  0  0  0  0  0  0  0
    0.5676  -52.7775  -22.6478 C   0  0  0  0  0  0  0  0  0  0  0  0
   -0.5264  -53.2075  -23.3669 N   0  0  0  0  0  0  0  0  0  0  0  0
   -0.5976  -53.1001  -24.6818 C   0  0  0  0  0  0  0  0  0  0  0  0
    0.4232  -52.5525  -25.3721 C   0  0  0  0  0  0  0  0  0  0  0  0
    0.4166  -52.3680  -27.1153 Cl  0  0  0  0  0  0  0  0  0  0  0  0
    1.5672  -52.0895  -24.6955 C   0  0  0  0  0  0  0  0  0  0  0  0
    1.5357  -52.2470  -23.3631 N   0  0  0  0  0  0  0  0  0  0  0  0
    2.6792  -51.6403  -25.4241 N   0  0  0  0  0  0  0  0  0  0  0  0
    2.4764  -51.4647  -26.4514 H   0  0  0  0  0  0  0  0  0  0  0  0
    3.9708  -51.4362  -24.9332 C   0  0  0  0  0  0  0  0  0  0  0  0
    4.6354  -52.3563  -24.1355 C   0  0  0  0  0  0  0  0  0  0  0  0
    5.8837  -52.1746  -23.5937 C   0  0  0  0  0  0  0  0  0  0  0  0
    6.5312  -51.0032  -23.8508 C   0  0  0  0  0  0  0  0  0  0  0  0
    5.9112  -50.0732  -24.6282 C   0  0  0  0  0  0  0  0  0  0  0  0
    4.6346  -50.2317  -25.1962 C   0  0  0  0  0  0  0  0  0  0  0  0
    3.9407  -48.9551  -26.1210 S   0  0  0  0  0  0  0  0  0  0  0  0
    2.5815  -48.5024  -25.6016 O   0  0  0  0  0  0  0  0  0  0  0  0
    3.5696  -49.5914  -27.4765 O   0  0  0  0  0  0  0  0  0  0  0  0
    4.9742  -47.6038  -26.5082 C   0  0  0  0  0  0  0  0  0  0  0  0
    5.4119  -46.7982  -25.3474 C   0  0  0  0  0  0  0  0  0  0  0  0
    6.1480  -48.0298  -27.3901 C   0  0  0  0  0  0  0  0  0  0  0  0
    4.1935  -46.6103  -27.4199 C   0  0  0  0  0  0  0  0  0  0  0  0
    0.3738  -52.0664  -19.0339 C   0  0  0  0  0  0  0  0  0  0  0  0
    0.8966  -51.3830  -17.9567 C   0  0  0  0  0  0  0  0  0  0  0  0
    2.1567  -50.8311  -17.9550 C   0  0  0  0  0  0  0  0  0  0  0  0
    2.9017  -50.9921  -19.1069 C   0  0  0  0  0  0  0  0  0  0  0  0
    2.3666  -51.6901  -20.2055 C   0  0  0  0  0  0  0  0  0  0  0  0
    1.1367  -52.2375  -20.2266 C   0  0  0  0  0  0  0  0  0  0  0  0
    2.6779  -50.1248  -16.8262 N   0  0  0  0  0  0  0  0  0  0  0  0
    3.5513  -50.8251  -15.8860 C   0  0  0  0  0  0  0  0  0  0  0  0
    3.2937  -50.3366  -14.4941 C   0  0  0  0  0  0  0  0  0  0  0  0
    1.9124  -49.7449  -14.3285 C   0  0  0  0  0  0  0  0  0  0  0  0
    1.7645  -48.5173  -15.1659 C   0  0  0  0  0  0  0  0  0  0  0  0
    2.4351  -48.7398  -16.5325 C   0  0  0  0  0  0  0  0  0  0  0  0
    2.1352  -47.2840  -14.7000 N   0  0  0  0  0  0  0  0  0  0  0  0
    1.3966  -46.4473  -13.8833 C   0  0  0  0  0  0  0  0  0  0  0  0
    0.9095  -45.2242  -14.6030 C   0  0  0  0  0  0  0  0  0  0  0  0
    1.9527  -44.6163  -15.2800 O   0  0  0  0  0  0  0  0  0  0  0  0
    3.2084  -45.1263  -15.0139 C   0  0  0  0  0  0  0  0  0  0  0  0
    3.2663  -46.6278  -15.2583 C   0  0  0  0  0  0  0  0  0  0  0  0
   -1.6284  -53.0570  -17.9762 C   0  0  0  0  0  0  0  0  0  0  0  0
   -0.8535  -52.5948  -19.0174 O   0  0  0  0  0  0  0  0  0  0  0  0
 43 44  1  0  0  0
 44 25  1  0  0  0
 25 26  2  0  0  0
 26 27  1  0  0  0
 27 28  2  0  0  0
 28 29  1  0  0  0
 29 30  2  0  0  0
 30  1  1  0  0  0
  1  3  1  0  0  0
  3  4  2  0  0  0
  4  5  1  0  0  0
  5  6  2  0  0  0
  6  7  1  0  0  0
  6  8  1  0  0  0
  8 10  1  0  0  0
 10 12  1  0  0  0
 12 13  2  0  0  0
 13 14  1  0  0  0
 14 15  2  0  0  0
 15 16  1  0  0  0
 16 17  2  0  0  0
 17 18  1  0  0  0
 18 19  2  0  0  0
 18 20  2  0  0  0
 18 21  1  0  0  0
 21 22  1  0  0  0
 21 23  1  0  0  0
 21 24  1  0  0  0
  8  9  2  0  0  0
 27 31  1  0  0  0
 31 32  1  0  0  0
 32 33  1  0  0  0
 33 34  1  0  0  0
 34 35  1  0  0  0
 35 36  1  0  0  0
 35 37  1  0  0  0
 37 38  1  0  0  0
 38 39  1  0  0  0
 39 40  1  0  0  0
 40 41  1  0  0  0
 41 42  1  0  0  0
 30 25  1  0  0  0
  9  3  1  0  0  0
 36 31  1  0  0  0
 42 37  1  0  0  0
 17 12  1  0  0  0
  1  2  1  0  0  0
 10 11  1  0  0  0
M  END
> <minimizedAffinity>
-6.34254

> <CNNscore>
0.1997690797

> <CNNaffinity>
7.2492141724

> <CNN_VS>
1.4481688738

> <CNNaffinity_variance>
0.2416008413

$$$$
[H]c1nc(N([H])c2c([H])c([H])c(N3C([H])([H])C([H])([H])C([H])([H])[C@@]([H])(N4C([H])([H])C([H])([H])OC([H])([H])C4([H])[H])C3([H])[H])c([H])c2OC([H])([H])[H])nc(N([H])c2c([H])c([H])c([H])c([H])c2S(=O)(=O)C(C([H])([H])[H])(C([H])([H])[H])C([H])([H])[H])c1Cl


 44 48  0  0  0  0  0  0  0  0999 V2000
   -0.2571  -53.1108  -18.1116 N   0  0  0  0  0  0  0  0  0  0  0  0
    0.5693  -53.6195  -17.5813 H   0  0  0  0  0  0  0  0  0  0  0  0
   -1.2552  -52.6860  -17.2527 C   0  0  0  0  0  0  0  0  0  0  0  0
   -2.5502  -53.0683  -17.5275 N   0  0  0  0  0  0  0  0  0  0  0  0
   -3.5758  -52.6806  -16.7903 C   0  0  0  0  0  0  0  0  0  0  0  0
   -3.3774  -51.8814  -15.7224 C   0  0  0  0  0  0  0  0  0  0  0  0
   -4.6754  -51.3185  -14.6874 Cl  0  0  0  0  0  0  0  0  0  0  0  0
   -2.0775  -51.4598  -15.3858 C   0  0  0  0  0  0  0  0  0  0  0  0
   -1.1107  -51.9107  -16.2000 N   0  0  0  0  0  0  0  0  0  0  0  0
   -1.8877  -50.5264  -14.3552 N   0  0  0  0  0  0  0  0  0  0  0  0
   -1.9254  -50.9488  -13.3818 H   0  0  0  0  0  0  0  0  0  0  0  0
   -1.6840  -49.1524  -14.5015 C   0  0  0  0  0  0  0  0  0  0  0  0
   -2.6784  -48.2753  -14.9095 C   0  0  0  0  0  0  0  0  0  0  0  0
   -2.5080  -46.9281  -15.1118 C   0  0  0  0  0  0  0  0  0  0  0  0
   -1.2702  -46.3983  -14.9001 C   0  0  0  0  0  0  0  0  0  0  0  0
   -0.2665  -47.2271  -14.5009 C   0  0  0  0  0  0  0  0  0  0  0  0
   -0.4116  -48.6091  -14.2857 C   0  0  0  0  0  0  0  0  0  0  0  0
    0.9529  -49.5559  -13.8291 S   0  0  0  0  0  0  0  0  0  0  0  0
    0.5813  -50.8272  -13.0755 O   0  0  0  0  0  0  0  0  0  0  0  0
    1.6696  -48.7347  -12.7375 O   0  0  0  0  0  0  0  0  0  0  0  0
    2.1580  -49.8531  -15.0552 C   0  0  0  0  0  0  0  0  0  0  0  0
    1.6877  -49.6876  -16.4478 C   0  0  0  0  0  0  0  0  0  0  0  0
    3.4412  -49.0681  -14.7826 C   0  0  0  0  0  0  0  0  0  0  0  0
    2.6274  -51.3357  -14.9593 C   0  0  0  0  0  0  0  0  0  0  0  0
    1.1228  -52.4959  -20.0134 C   0  0  0  0  0  0  0  0  0  0  0  0
    1.3350  -52.3917  -21.3716 C   0  0  0  0  0  0  0  0  0  0  0  0
    0.3952  -52.7500  -22.3101 C   0  0  0  0  0  0  0  0  0  0  0  0
   -0.8053  -53.2331  -21.8269 C   0  0  0  0  0  0  0  0  0  0  0  0
   -1.0202  -53.3389  -20.4402 C   0  0  0  0  0  0  0  0  0  0  0  0
   -0.1135  -52.9943  -19.5065 C   0  0  0  0  0  0  0  0  0  0  0  0
    0.6368  -52.6317  -23.7145 N   0  0  0  0  0  0  0  0  0  0  0  0
    1.6779  -51.7202  -24.1862 C   0  0  0  0  0  0  0  0  0  0  0  0
    1.2523  -51.0875  -25.4750 C   0  0  0  0  0  0  0  0  0  0  0  0
   -0.2493  -51.0703  -25.6498 C   0  0  0  0  0  0  0  0  0  0  0  0
   -0.7812  -52.4623  -25.7480 C   0  0  0  0  0  0  0  0  0  0  0  0
   -0.0539  -53.3661  -24.7376 C   0  0  0  0  0  0  0  0  0  0  0  0
   -0.8456  -53.1211  -26.9469 N   0  0  0  0  0  0  0  0  0  0  0  0
    0.0147  -54.1031  -27.4031 C   0  0  0  0  0  0  0  0  0  0  0  0
    0.8768  -53.6310  -28.5368 C   0  0  0  0  0  0  0  0  0  0  0  0
    0.1019  -53.0270  -29.5119 O   0  0  0  0  0  0  0  0  0  0  0  0
   -1.2635  -53.1450  -29.3407 C   0  0  0  0  0  0  0  0  0  0  0  0
   -1.7024  -52.6385  -27.9738 C   0  0  0  0  0  0  0  0  0  0  0  0
    3.0681  -51.2179  -19.1819 C   0  0  0  0  0  0  0  0  0  0  0  0
    2.0479  -52.1416  -19.1165 O   0  0  0  0  0  0  0  0  0  0  0  0
 43 44  1  0  0  0
 44 25  1  0  0  0
 25 26  2  0  0  0
 26 27  1  0  0  0
 27 28  2  0  0  0
 28 29  1  0  0  0
 29 30  2  0  0  0
 30  1  1  0  0  0
  1  3  1  0  0  0
  3  4  2  0  0  0
  4  5  1  0  0  0
  5  6  2  0  0  0
  6  7  1  0  0  0
  6  8  1  0  0  0
  8 10  1  0  0  0
 10 12  1  0  0  0
 12 13  2  0  0  0
 13 14  1  0  0  0
 14 15  2  0  0  0
 15 16  1  0  0  0
 16 17  2  0  0  0
 17 18  1  0  0  0
 18 19  2  0  0  0
 18 20  2  0  0  0
 18 21  1  0  0  0
 21 22  1  0  0  0
 21 23  1  0  0  0
 21 24  1  0  0  0
  8  9  2  0  0  0
 27 31  1  0  0  0
 31 32  1  0  0  0
 32 33  1  0  0  0
 33 34  1  0  0  0
 34 35  1  0  0  0
 35 36  1  0  0  0
 35 37  1  0  0  0
 37 38  1  0  0  0
 38 39  1  0  0  0
 39 40  1  0  0  0
 40 41  1  0  0  0
 41 42  1  0  0  0
 30 25  1  0  0  0
  9  3  1  0  0  0
 36 31  1  0  0  0
 42 37  1  0  0  0
 17 12  1  0  0  0
  1  2  1  0  0  0
 10 11  1  0  0  0
M  END
> <minimizedAffinity>
-8.42747

> <CNNscore>
0.1607754976

> <CNNaffinity>
7.2099900246

> <CNN_VS>
1.1591897011

> <CNNaffinity_variance>
0.1849675626

$$$$
[H]c1nc(N([H])c2c([H])c([H])c(N3C([H])([H])C([H])([H])C([H])([H])[C@@]([H])(N4C([H])([H])C([H])([H])OC([H])([H])C4([H])[H])C3([H])[H])c([H])c2OC([H])([H])[H])nc(N([H])c2c([H])c([H])c([H])c([H])c2S(=O)(=O)C(C([H])([H])[H])(C([H])([H])[H])C([H])([H])[H])c1Cl


 44 48  0  0  0  0  0  0  0  0999 V2000
   -0.9304  -53.3176  -18.7182 N   0  0  0  0  0  0  0  0  0  0  0  0
   -1.4196  -54.3058  -18.8035 H   0  0  0  0  0  0  0  0  0  0  0  0
   -1.2096  -52.6907  -17.5168 C   0  0  0  0  0  0  0  0  0  0  0  0
   -2.5177  -52.6764  -17.0839 N   0  0  0  0  0  0  0  0  0  0  0  0
   -2.8899  -52.0690  -15.9712 C   0  0  0  0  0  0  0  0  0  0  0  0
   -1.9768  -51.4319  -15.2104 C   0  0  0  0  0  0  0  0  0  0  0  0
   -2.3775  -50.6010  -13.7197 Cl  0  0  0  0  0  0  0  0  0  0  0  0
   -0.6232  -51.4141  -15.5954 C   0  0  0  0  0  0  0  0  0  0  0  0
   -0.3549  -52.0604  -16.7406 N   0  0  0  0  0  0  0  0  0  0  0  0
    0.3013  -50.6435  -14.8737 N   0  0  0  0  0  0  0  0  0  0  0  0
    0.0605  -49.6101  -14.8349 H   0  0  0  0  0  0  0  0  0  0  0  0
    1.4644  -51.1028  -14.2517 C   0  0  0  0  0  0  0  0  0  0  0  0
    1.4905  -52.1992  -13.4022 C   0  0  0  0  0  0  0  0  0  0  0  0
    2.6004  -52.6538  -12.7342 C   0  0  0  0  0  0  0  0  0  0  0  0
    3.7745  -51.9841  -12.9094 C   0  0  0  0  0  0  0  0  0  0  0  0
    3.7898  -50.9008  -13.7340 C   0  0  0  0  0  0  0  0  0  0  0  0
    2.6699  -50.4131  -14.4307 C   0  0  0  0  0  0  0  0  0  0  0  0
    2.8120  -49.0000  -15.4050 S   0  0  0  0  0  0  0  0  0  0  0  0
    3.9184  -48.0581  -14.9458 O   0  0  0  0  0  0  0  0  0  0  0  0
    1.5440  -48.1731  -15.1079 O   0  0  0  0  0  0  0  0  0  0  0  0
    2.8251  -49.2274  -17.1348 C   0  0  0  0  0  0  0  0  0  0  0  0
    1.5118  -49.0689  -17.7966 C   0  0  0  0  0  0  0  0  0  0  0  0
    3.9131  -48.3866  -17.8030 C   0  0  0  0  0  0  0  0  0  0  0  0
    3.2659  -50.6876  -17.4532 C   0  0  0  0  0  0  0  0  0  0  0  0
   -0.4189  -53.5090  -21.0848 C   0  0  0  0  0  0  0  0  0  0  0  0
    0.3004  -53.1398  -22.2015 C   0  0  0  0  0  0  0  0  0  0  0  0
    1.3132  -52.2094  -22.1709 C   0  0  0  0  0  0  0  0  0  0  0  0
    1.5912  -51.6411  -20.9430 C   0  0  0  0  0  0  0  0  0  0  0  0
    0.8560  -52.0191  -19.8041 C   0  0  0  0  0  0  0  0  0  0  0  0
   -0.1386  -52.9266  -19.8136 C   0  0  0  0  0  0  0  0  0  0  0  0
    2.0472  -51.8429  -23.3421 N   0  0  0  0  0  0  0  0  0  0  0  0
    2.1203  -52.7799  -24.4619 C   0  0  0  0  0  0  0  0  0  0  0  0
    3.4665  -52.6899  -25.1115 C   0  0  0  0  0  0  0  0  0  0  0  0
    4.5309  -52.1571  -24.1793 C   0  0  0  0  0  0  0  0  0  0  0  0
    4.2307  -50.7460  -23.7934 C   0  0  0  0  0  0  0  0  0  0  0  0
    2.7218  -50.5899  -23.5374 C   0  0  0  0  0  0  0  0  0  0  0  0
    4.6493  -49.6902  -24.5585 N   0  0  0  0  0  0  0  0  0  0  0  0
    5.6685  -48.8028  -24.2645 C   0  0  0  0  0  0  0  0  0  0  0  0
    5.1595  -47.4283  -23.9434 C   0  0  0  0  0  0  0  0  0  0  0  0
    4.2715  -47.0041  -24.9168 O   0  0  0  0  0  0  0  0  0  0  0  0
    4.1832  -47.8145  -26.0317 C   0  0  0  0  0  0  0  0  0  0  0  0
    3.8560  -49.2526  -25.6544 C   0  0  0  0  0  0  0  0  0  0  0  0
   -2.0537  -54.9874  -22.2032 C   0  0  0  0  0  0  0  0  0  0  0  0
   -1.3991  -54.4160  -21.1339 O   0  0  0  0  0  0  0  0  0  0  0  0
 43 44  1  0  0  0
 44 25  1  0  0  0
 25 26  2  0  0  0
 26 27  1  0  0  0
 27 28  2  0  0  0
 28 29  1  0  0  0
 29 30  2  0  0  0
 30  1  1  0  0  0
  1  3  1  0  0  0
  3  4  2  0  0  0
  4  5  1  0  0  0
  5  6  2  0  0  0
  6  7  1  0  0  0
  6  8  1  0  0  0
  8 10  1  0  0  0
 10 12  1  0  0  0
 12 13  2  0  0  0
 13 14  1  0  0  0
 14 15  2  0  0  0
 15 16  1  0  0  0
 16 17  2  0  0  0
 17 18  1  0  0  0
 18 19  2  0  0  0
 18 20  2  0  0  0
 18 21  1  0  0  0
 21 22  1  0  0  0
 21 23  1  0  0  0
 21 24  1  0  0  0
  8  9  2  0  0  0
 27 31  1  0  0  0
 31 32  1  0  0  0
 32 33  1  0  0  0
 33 34  1  0  0  0
 34 35  1  0  0  0
 35 36  1  0  0  0
 35 37  1  0  0  0
 37 38  1  0  0  0
 38 39  1  0  0  0
 39 40  1  0  0  0
 40 41  1  0  0  0
 41 42  1  0  0  0
 30 25  1  0  0  0
  9  3  1  0  0  0
 36 31  1  0  0  0
 42 37  1  0  0  0
 17 12  1  0  0  0
  1  2  1  0  0  0
 10 11  1  0  0  0
M  END
> <minimizedAffinity>
-7.42157

> <CNNscore>
0.1507270932

> <CNNaffinity>
7.2033181190

> <CNN_VS>
1.0857352018

> <CNNaffinity_variance>
0.1735072434

$$$$
[H]c1nc(N([H])c2c([H])c([H])c(N3C([H])([H])C([H])([H])C([H])([H])[C@@]([H])(N4C([H])([H])C([H])([H])OC([H])([H])C4([H])[H])C3([H])[H])c([H])c2OC([H])([H])[H])nc(N([H])c2c([H])c([H])c([H])c([H])c2S(=O)(=O)C(C([H])([H])[H])(C([H])([H])[H])C([H])([H])[H])c1Cl


 44 48  0  0  0  0  0  0  0  0999 V2000
    0.8790  -52.8488  -20.3724 N   0  0  0  0  0  0  0  0  0  0  0  0
    1.4829  -53.7647  -20.2334 H   0  0  0  0  0  0  0  0  0  0  0  0
    0.7156  -52.5198  -21.7064 C   0  0  0  0  0  0  0  0  0  0  0  0
   -0.3871  -53.0190  -22.3648 N   0  0  0  0  0  0  0  0  0  0  0  0
   -0.6091  -52.7943  -23.6477 C   0  0  0  0  0  0  0  0  0  0  0  0
    0.2585  -52.0512  -24.3643 C   0  0  0  0  0  0  0  0  0  0  0  0
    0.0459  -51.7001  -26.0686 Cl  0  0  0  0  0  0  0  0  0  0  0  0
    1.4021  -51.5086  -23.7488 C   0  0  0  0  0  0  0  0  0  0  0  0
    1.5306  -51.7981  -22.4447 N   0  0  0  0  0  0  0  0  0  0  0  0
    2.3678  -50.8468  -24.5226 N   0  0  0  0  0  0  0  0  0  0  0  0
    1.9582  -50.2033  -25.2612 H   0  0  0  0  0  0  0  0  0  0  0  0
    3.7543  -50.9773  -24.4163 C   0  0  0  0  0  0  0  0  0  0  0  0
    4.3962  -52.2015  -24.2981 C   0  0  0  0  0  0  0  0  0  0  0  0
    5.7497  -52.3711  -24.1433 C   0  0  0  0  0  0  0  0  0  0  0  0
    6.5356  -51.2584  -24.0995 C   0  0  0  0  0  0  0  0  0  0  0  0
    5.9430  -50.0376  -24.2099 C   0  0  0  0  0  0  0  0  0  0  0  0
    4.5609  -49.8336  -24.3695 C   0  0  0  0  0  0  0  0  0  0  0  0
    3.9315  -48.2322  -24.4466 S   0  0  0  0  0  0  0  0  0  0  0  0
    2.8979  -48.0416  -25.5499 O   0  0  0  0  0  0  0  0  0  0  0  0
    5.1008  -47.3605  -24.9495 O   0  0  0  0  0  0  0  0  0  0  0  0
    3.4226  -47.5069  -22.9436 C   0  0  0  0  0  0  0  0  0  0  0  0
    2.3676  -48.2469  -22.2175 C   0  0  0  0  0  0  0  0  0  0  0  0
    4.6163  -47.1764  -22.0476 C   0  0  0  0  0  0  0  0  0  0  0  0
    2.8065  -46.1061  -23.2370 C   0  0  0  0  0  0  0  0  0  0  0  0
    1.0723  -51.0649  -18.7356 C   0  0  0  0  0  0  0  0  0  0  0  0
    0.6337  -50.4039  -17.6080 C   0  0  0  0  0  0  0  0  0  0  0  0
   -0.4474  -50.8183  -16.8652 C   0  0  0  0  0  0  0  0  0  0  0  0
   -1.0975  -51.9553  -17.3041 C   0  0  0  0  0  0  0  0  0  0  0  0
   -0.6485  -52.6288  -18.4554 C   0  0  0  0  0  0  0  0  0  0  0  0
    0.4064  -52.2390  -19.1957 C   0  0  0  0  0  0  0  0  0  0  0  0
   -0.8837  -50.1175  -15.6976 N   0  0  0  0  0  0  0  0  0  0  0  0
   -1.6418  -50.8359  -14.6746 C   0  0  0  0  0  0  0  0  0  0  0  0
   -2.6738  -49.9295  -14.0781 C   0  0  0  0  0  0  0  0  0  0  0  0
   -3.0605  -48.7964  -15.0013 C   0  0  0  0  0  0  0  0  0  0  0  0
   -1.8947  -47.8942  -15.2400 C   0  0  0  0  0  0  0  0  0  0  0  0
   -0.6179  -48.7345  -15.4150 C   0  0  0  0  0  0  0  0  0  0  0  0
   -1.6121  -46.8516  -14.3982 N   0  0  0  0  0  0  0  0  0  0  0  0
   -2.0491  -45.5449  -14.5172 C   0  0  0  0  0  0  0  0  0  0  0  0
   -0.9422  -44.5993  -14.8807 C   0  0  0  0  0  0  0  0  0  0  0  0
    0.1434  -44.7834  -14.0419 O   0  0  0  0  0  0  0  0  0  0  0  0
   -0.0724  -45.6280  -12.9706 C   0  0  0  0  0  0  0  0  0  0  0  0
   -0.5855  -46.9877  -13.4239 C   0  0  0  0  0  0  0  0  0  0  0  0
    3.4682  -50.6086  -19.1360 C   0  0  0  0  0  0  0  0  0  0  0  0
    2.1259  -50.6477  -19.4439 O   0  0  0  0  0  0  0  0  0  0  0  0
 43 44  1  0  0  0
 44 25  1  0  0  0
 25 26  2  0  0  0
 26 27  1  0  0  0
 27 28  2  0  0  0
 28 29  1  0  0  0
 29 30  2  0  0  0
 30  1  1  0  0  0
  1  3  1  0  0  0
  3  4  2  0  0  0
  4  5  1  0  0  0
  5  6  2  0  0  0
  6  7  1  0  0  0
  6  8  1  0  0  0
  8 10  1  0  0  0
 10 12  1  0  0  0
 12 13  2  0  0  0
 13 14  1  0  0  0
 14 15  2  0  0  0
 15 16  1  0  0  0
 16 17  2  0  0  0
 17 18  1  0  0  0
 18 19  2  0  0  0
 18 20  2  0  0  0
 18 21  1  0  0  0
 21 22  1  0  0  0
 21 23  1  0  0  0
 21 24  1  0  0  0
  8  9  2  0  0  0
 27 31  1  0  0  0
 31 32  1  0  0  0
 32 33  1  0  0  0
 33 34  1  0  0  0
 34 35  1  0  0  0
 35 36  1  0  0  0
 35 37  1  0  0  0
 37 38  1  0  0  0
 38 39  1  0  0  0
 39 40  1  0  0  0
 40 41  1  0  0  0
 41 42  1  0  0  0
 30 25  1  0  0  0
  9  3  1  0  0  0
 36 31  1  0  0  0
 42 37  1  0  0  0
 17 12  1  0  0  0
  1  2  1  0  0  0
 10 11  1  0  0  0
M  END
> <minimizedAffinity>
-7.25928

> <CNNscore>
0.1052146479

> <CNNaffinity>
7.0650596619

> <CNN_VS>
0.7433477640

> <CNNaffinity_variance>
0.0953904837

$$$$
[H]c1nc(N([H])c2c([H])c([H])c(N3C([H])([H])C([H])([H])C([H])([H])[C@@]([H])(N4C([H])([H])C([H])([H])OC([H])([H])C4([H])[H])C3([H])[H])c([H])c2OC([H])([H])[H])nc(N([H])c2c([H])c([H])c([H])c([H])c2S(=O)(=O)C(C([H])([H])[H])(C([H])([H])[H])C([H])([H])[H])c1Cl


 44 48  0  0  0  0  0  0  0  0999 V2000
   -0.6741  -53.2634  -19.1977 N   0  0  0  0  0  0  0  0  0  0  0  0
   -0.8248  -54.3532  -19.3091 H   0  0  0  0  0  0  0  0  0  0  0  0
   -1.0950  -52.7939  -17.9661 C   0  0  0  0  0  0  0  0  0  0  0  0
   -2.3931  -53.0543  -17.5844 N   0  0  0  0  0  0  0  0  0  0  0  0
   -2.8996  -52.6142  -16.4462 C   0  0  0  0  0  0  0  0  0  0  0  0
   -2.1405  -51.8812  -15.6067 C   0  0  0  0  0  0  0  0  0  0  0  0
   -2.7259  -51.2566  -14.0769 Cl  0  0  0  0  0  0  0  0  0  0  0  0
   -0.8048  -51.5846  -15.9366 C   0  0  0  0  0  0  0  0  0  0  0  0
   -0.3923  -52.0795  -17.1140 N   0  0  0  0  0  0  0  0  0  0  0  0
   -0.0584  -50.7156  -15.1261 N   0  0  0  0  0  0  0  0  0  0  0  0
   -0.4706  -49.7401  -15.0499 H   0  0  0  0  0  0  0  0  0  0  0  0
    1.1341  -51.0123  -14.4622 C   0  0  0  0  0  0  0  0  0  0  0  0
    1.3109  -52.1499  -13.6882 C   0  0  0  0  0  0  0  0  0  0  0  0
    2.4479  -52.4548  -12.9817 C   0  0  0  0  0  0  0  0  0  0  0  0
    3.4914  -51.5796  -13.0352 C   0  0  0  0  0  0  0  0  0  0  0  0
    3.3562  -50.4497  -13.7827 C   0  0  0  0  0  0  0  0  0  0  0  0
    2.2051  -50.1118  -14.5161 C   0  0  0  0  0  0  0  0  0  0  0  0
    2.1435  -48.6244  -15.3824 S   0  0  0  0  0  0  0  0  0  0  0  0
    1.6443  -48.7789  -16.8138 O   0  0  0  0  0  0  0  0  0  0  0  0
    3.6164  -48.2198  -15.5991 O   0  0  0  0  0  0  0  0  0  0  0  0
    1.4015  -47.2669  -14.5757 C   0  0  0  0  0  0  0  0  0  0  0  0
   -0.0535  -47.1247  -14.8004 C   0  0  0  0  0  0  0  0  0  0  0  0
    1.7620  -47.2313  -13.0905 C   0  0  0  0  0  0  0  0  0  0  0  0
    2.0266  -45.9474  -15.1196 C   0  0  0  0  0  0  0  0  0  0  0  0
   -0.1781  -53.2332  -21.5751 C   0  0  0  0  0  0  0  0  0  0  0  0
    0.3460  -52.6228  -22.6946 C   0  0  0  0  0  0  0  0  0  0  0  0
    0.9764  -51.4007  -22.6602 C   0  0  0  0  0  0  0  0  0  0  0  0
    1.0674  -50.7886  -21.4252 C   0  0  0  0  0  0  0  0  0  0  0  0
    0.5318  -51.4131  -20.2834 C   0  0  0  0  0  0  0  0  0  0  0  0
   -0.0889  -52.6078  -20.2966 C   0  0  0  0  0  0  0  0  0  0  0  0
    1.5142  -50.7869  -23.8344 N   0  0  0  0  0  0  0  0  0  0  0  0
    1.0827  -51.2592  -25.1490 C   0  0  0  0  0  0  0  0  0  0  0  0
    2.2291  -51.2001  -26.1106 C   0  0  0  0  0  0  0  0  0  0  0  0
    3.5736  -51.2461  -25.4208 C   0  0  0  0  0  0  0  0  0  0  0  0
    3.7663  -50.0355  -24.5678 C   0  0  0  0  0  0  0  0  0  0  0  0
    2.4513  -49.6984  -23.8440 C   0  0  0  0  0  0  0  0  0  0  0  0
    4.2868  -48.8760  -25.0776 N   0  0  0  0  0  0  0  0  0  0  0  0
    3.9348  -48.2574  -26.2633 C   0  0  0  0  0  0  0  0  0  0  0  0
    5.0164  -48.3426  -27.2997 C   0  0  0  0  0  0  0  0  0  0  0  0
    6.2289  -47.9435  -26.7643 O   0  0  0  0  0  0  0  0  0  0  0  0
    6.1652  -47.3928  -25.4993 C   0  0  0  0  0  0  0  0  0  0  0  0
    5.4719  -48.3261  -24.5165 C   0  0  0  0  0  0  0  0  0  0  0  0
   -1.3596  -55.1016  -22.6806 C   0  0  0  0  0  0  0  0  0  0  0  0
   -0.7864  -54.4219  -21.6281 O   0  0  0  0  0  0  0  0  0  0  0  0
 43 44  1  0  0  0
 44 25  1  0  0  0
 25 26  2  0  0  0
 26 27  1  0  0  0
 27 28  2  0  0  0
 28 29  1  0  0  0
 29 30  2  0  0  0
 30  1  1  0  0  0
  1  3  1  0  0  0
  3  4  2  0  0  0
  4  5  1  0  0  0
  5  6  2  0  0  0
  6  7  1  0  0  0
  6  8  1  0  0  0
  8 10  1  0  0  0
 10 12  1  0  0  0
 12 13  2  0  0  0
 13 14  1  0  0  0
 14 15  2  0  0  0
 15 16  1  0  0  0
 16 17  2  0  0  0
 17 18  1  0  0  0
 18 19  2  0  0  0
 18 20  2  0  0  0
 18 21  1  0  0  0
 21 22  1  0  0  0
 21 23  1  0  0  0
 21 24  1  0  0  0
  8  9  2  0  0  0
 27 31  1  0  0  0
 31 32  1  0  0  0
 32 33  1  0  0  0
 33 34  1  0  0  0
 34 35  1  0  0  0
 35 36  1  0  0  0
 35 37  1  0  0  0
 37 38  1  0  0  0
 38 39  1  0  0  0
 39 40  1  0  0  0
 40 41  1  0  0  0
 41 42  1  0  0  0
 30 25  1  0  0  0
  9  3  1  0  0  0
 36 31  1  0  0  0
 42 37  1  0  0  0
 17 12  1  0  0  0
  1  2  1  0  0  0
 10 11  1  0  0  0
M  END
> <minimizedAffinity>
-6.98558

> <CNNscore>
0.1043988392

> <CNNaffinity>
7.0900993347

> <CNN_VS>
0.7401981354

> <CNNaffinity_variance>
0.0541564748

$$$$
[H]c1nc(N([H])c2c([H])c([H])c(N3C([H])([H])C([H])([H])C([H])([H])[C@@]([H])(N4C([H])([H])C([H])([H])OC([H])([H])C4([H])[H])C3([H])[H])c([H])c2OC([H])([H])[H])nc(N([H])c2c([H])c([H])c([H])c([H])c2S(=O)(=O)C(C([H])([H])[H])(C([H])([H])[H])C([H])([H])[H])c1Cl


 44 48  0  0  0  0  0  0  0  0999 V2000
   -0.7093  -52.4332  -23.4113 N   0  0  0  0  0  0  0  0  0  0  0  0
   -1.7325  -52.7050  -23.7309 H   0  0  0  0  0  0  0  0  0  0  0  0
    0.1785  -52.3755  -24.4710 C   0  0  0  0  0  0  0  0  0  0  0  0
    0.0952  -53.3536  -25.4379 N   0  0  0  0  0  0  0  0  0  0  0  0
    0.9236  -53.4072  -26.4658 C   0  0  0  0  0  0  0  0  0  0  0  0
    1.8960  -52.4825  -26.5998 C   0  0  0  0  0  0  0  0  0  0  0  0
    3.0384  -52.4732  -27.9293 Cl  0  0  0  0  0  0  0  0  0  0  0  0
    2.0309  -51.4544  -25.6481 C   0  0  0  0  0  0  0  0  0  0  0  0
    1.1390  -51.4940  -24.6461 N   0  0  0  0  0  0  0  0  0  0  0  0
    3.1200  -50.5722  -25.7183 N   0  0  0  0  0  0  0  0  0  0  0  0
    2.9977  -49.7959  -26.4323 H   0  0  0  0  0  0  0  0  0  0  0  0
    4.3004  -50.6437  -24.9750 C   0  0  0  0  0  0  0  0  0  0  0  0
    4.9464  -51.8370  -24.6866 C   0  0  0  0  0  0  0  0  0  0  0  0
    6.0796  -51.9557  -23.9208 C   0  0  0  0  0  0  0  0  0  0  0  0
    6.6220  -50.8208  -23.3959 C   0  0  0  0  0  0  0  0  0  0  0  0
    6.0159  -49.6294  -23.6544 C   0  0  0  0  0  0  0  0  0  0  0  0
    4.8559  -49.4775  -24.4346 C   0  0  0  0  0  0  0  0  0  0  0  0
    4.1589  -47.9164  -24.6438 S   0  0  0  0  0  0  0  0  0  0  0  0
    3.2270  -47.8269  -25.8462 O   0  0  0  0  0  0  0  0  0  0  0  0
    5.3266  -47.0052  -25.0754 O   0  0  0  0  0  0  0  0  0  0  0  0
    3.4741  -47.1577  -23.2298 C   0  0  0  0  0  0  0  0  0  0  0  0
    4.4543  -46.7644  -22.1942 C   0  0  0  0  0  0  0  0  0  0  0  0
    2.5404  -46.0075  -23.6069 C   0  0  0  0  0  0  0  0  0  0  0  0
    2.5198  -48.1660  -22.5225 C   0  0  0  0  0  0  0  0  0  0  0  0
   -1.0218  -53.1774  -21.1206 C   0  0  0  0  0  0  0  0  0  0  0  0
   -0.8516  -53.0172  -19.7619 C   0  0  0  0  0  0  0  0  0  0  0  0
   -0.2205  -51.9289  -19.2055 C   0  0  0  0  0  0  0  0  0  0  0  0
    0.2512  -50.9737  -20.0847 C   0  0  0  0  0  0  0  0  0  0  0  0
    0.0767  -51.1388  -21.4714 C   0  0  0  0  0  0  0  0  0  0  0  0
   -0.5372  -52.1963  -22.0351 C   0  0  0  0  0  0  0  0  0  0  0  0
   -0.0567  -51.7829  -17.7924 N   0  0  0  0  0  0  0  0  0  0  0  0
   -1.0161  -52.4205  -16.8922 C   0  0  0  0  0  0  0  0  0  0  0  0
   -1.2433  -51.5507  -15.6947 C   0  0  0  0  0  0  0  0  0  0  0  0
   -0.9346  -50.0951  -15.9624 C   0  0  0  0  0  0  0  0  0  0  0  0
    0.5177  -49.9137  -16.2592 C   0  0  0  0  0  0  0  0  0  0  0  0
    1.0104  -51.0649  -17.1530 C   0  0  0  0  0  0  0  0  0  0  0  0
    1.4341  -49.7217  -15.2599 N   0  0  0  0  0  0  0  0  0  0  0  0
    1.5637  -48.6054  -14.4538 C   0  0  0  0  0  0  0  0  0  0  0  0
    2.8080  -47.8219  -14.7522 C   0  0  0  0  0  0  0  0  0  0  0  0
    3.9096  -48.6596  -14.7800 O   0  0  0  0  0  0  0  0  0  0  0  0
    3.6793  -49.9550  -14.3596 C   0  0  0  0  0  0  0  0  0  0  0  0
    2.5432  -50.6030  -15.1387 C   0  0  0  0  0  0  0  0  0  0  0  0
   -1.1933  -55.2120  -22.5134 C   0  0  0  0  0  0  0  0  0  0  0  0
   -1.6389  -54.2415  -21.6428 O   0  0  0  0  0  0  0  0  0  0  0  0
 43 44  1  0  0  0
 44 25  1  0  0  0
 25 26  2  0  0  0
 26 27  1  0  0  0
 27 28  2  0  0  0
 28 29  1  0  0  0
 29 30  2  0  0  0
 30  1  1  0  0  0
  1  3  1  0  0  0
  3  4  2  0  0  0
  4  5  1  0  0  0
  5  6  2  0  0  0
  6  7  1  0  0  0
  6  8  1  0  0  0
  8 10  1  0  0  0
 10 12  1  0  0  0
 12 13  2  0  0  0
 13 14  1  0  0  0
 14 15  2  0  0  0
 15 16  1  0  0  0
 16 17  2  0  0  0
 17 18  1  0  0  0
 18 19  2  0  0  0
 18 20  2  0  0  0
 18 21  1  0  0  0
 21 22  1  0  0  0
 21 23  1  0  0  0
 21 24  1  0  0  0
  8  9  2  0  0  0
 27 31  1  0  0  0
 31 32  1  0  0  0
 32 33  1  0  0  0
 33 34  1  0  0  0
 34 35  1  0  0  0
 35 36  1  0  0  0
 35 37  1  0  0  0
 37 38  1  0  0  0
 38 39  1  0  0  0
 39 40  1  0  0  0
 40 41  1  0  0  0
 41 42  1  0  0  0
 30 25  1  0  0  0
  9  3  1  0  0  0
 36 31  1  0  0  0
 42 37  1  0  0  0
 17 12  1  0  0  0
  1  2  1  0  0  0
 10 11  1  0  0  0
M  END
> <minimizedAffinity>
-7.72934

> <CNNscore>
0.0914603546

> <CNNaffinity>
7.3330907822

> <CNN_VS>
0.6706870794

> <CNNaffinity_variance>
0.1205474734

$$$$
[H]c1nc(N([H])c2c([H])c([H])c(N3C([H])([H])C([H])([H])C([H])([H])[C@@]([H])(N4C([H])([H])C([H])([H])OC([H])([H])C4([H])[H])C3([H])[H])c([H])c2OC([H])([H])[H])nc(N([H])c2c([H])c([H])c([H])c([H])c2S(=O)(=O)C(C([H])([H])[H])(C([H])([H])[H])C([H])([H])[H])c1Cl


 44 48  0  0  0  0  0  0  0  0999 V2000
    0.9624  -52.5379  -23.4984 N   0  0  0  0  0  0  0  0  0  0  0  0
    0.6176  -53.4028  -24.0950 H   0  0  0  0  0  0  0  0  0  0  0  0
    0.5242  -52.5909  -22.1871 C   0  0  0  0  0  0  0  0  0  0  0  0
   -0.2820  -53.6454  -21.8171 N   0  0  0  0  0  0  0  0  0  0  0  0
   -0.7829  -53.7623  -20.6001 C   0  0  0  0  0  0  0  0  0  0  0  0
   -0.5110  -52.8303  -19.6643 C   0  0  0  0  0  0  0  0  0  0  0  0
   -1.1295  -52.9029  -18.0257 Cl  0  0  0  0  0  0  0  0  0  0  0  0
    0.3102  -51.7311  -19.9779 C   0  0  0  0  0  0  0  0  0  0  0  0
    0.7648  -51.7099  -21.2405 N   0  0  0  0  0  0  0  0  0  0  0  0
    0.4858  -50.6979  -19.0446 N   0  0  0  0  0  0  0  0  0  0  0  0
   -0.0858  -50.8191  -18.1581 H   0  0  0  0  0  0  0  0  0  0  0  0
    1.2966  -49.5701  -19.1916 C   0  0  0  0  0  0  0  0  0  0  0  0
    1.3909  -48.8503  -20.3737 C   0  0  0  0  0  0  0  0  0  0  0  0
    2.2101  -47.7670  -20.5747 C   0  0  0  0  0  0  0  0  0  0  0  0
    2.9981  -47.3571  -19.5410 C   0  0  0  0  0  0  0  0  0  0  0  0
    2.9360  -48.0392  -18.3643 C   0  0  0  0  0  0  0  0  0  0  0  0
    2.1072  -49.1507  -18.1297 C   0  0  0  0  0  0  0  0  0  0  0  0
    2.1604  -49.9569  -16.6086 S   0  0  0  0  0  0  0  0  0  0  0  0
    3.4703  -49.7467  -15.8588 O   0  0  0  0  0  0  0  0  0  0  0  0
    2.2238  -51.4604  -16.9482 O   0  0  0  0  0  0  0  0  0  0  0  0
    0.7745  -49.7731  -15.5648 C   0  0  0  0  0  0  0  0  0  0  0  0
   -0.2806  -48.8727  -16.0786 C   0  0  0  0  0  0  0  0  0  0  0  0
    0.2155  -51.1281  -15.1306 C   0  0  0  0  0  0  0  0  0  0  0  0
    1.2317  -49.1352  -14.2188 C   0  0  0  0  0  0  0  0  0  0  0  0
    1.8646  -51.7113  -25.5964 C   0  0  0  0  0  0  0  0  0  0  0  0
    2.6068  -50.8027  -26.3205 C   0  0  0  0  0  0  0  0  0  0  0  0
    3.2853  -49.7545  -25.7433 C   0  0  0  0  0  0  0  0  0  0  0  0
    3.1926  -49.6420  -24.3697 C   0  0  0  0  0  0  0  0  0  0  0  0
    2.4345  -50.5703  -23.6319 C   0  0  0  0  0  0  0  0  0  0  0  0
    1.7633  -51.6018  -24.1781 C   0  0  0  0  0  0  0  0  0  0  0  0
    4.0505  -48.8248  -26.5145 N   0  0  0  0  0  0  0  0  0  0  0  0
    5.0471  -47.9906  -25.8448 C   0  0  0  0  0  0  0  0  0  0  0  0
    5.0871  -46.6368  -26.4836 C   0  0  0  0  0  0  0  0  0  0  0  0
    3.7976  -46.2856  -27.1904 C   0  0  0  0  0  0  0  0  0  0  0  0
    3.5611  -47.2103  -28.3389 C   0  0  0  0  0  0  0  0  0  0  0  0
    3.9453  -48.6443  -27.9356 C   0  0  0  0  0  0  0  0  0  0  0  0
    4.0815  -46.9578  -29.5802 N   0  0  0  0  0  0  0  0  0  0  0  0
    3.6143  -46.0445  -30.5076 C   0  0  0  0  0  0  0  0  0  0  0  0
    2.9921  -46.7052  -31.7024 C   0  0  0  0  0  0  0  0  0  0  0  0
    3.8359  -47.6791  -32.2080 O   0  0  0  0  0  0  0  0  0  0  0  0
    5.1003  -47.7135  -31.6531 C   0  0  0  0  0  0  0  0  0  0  0  0
    5.0432  -47.8445  -30.1374 C   0  0  0  0  0  0  0  0  0  0  0  0
    0.8279  -52.9267  -27.4823 C   0  0  0  0  0  0  0  0  0  0  0  0
    1.2129  -52.7243  -26.1750 O   0  0  0  0  0  0  0  0  0  0  0  0
 43 44  1  0  0  0
 44 25  1  0  0  0
 25 26  2  0  0  0
 26 27  1  0  0  0
 27 28  2  0  0  0
 28 29  1  0  0  0
 29 30  2  0  0  0
 30  1  1  0  0  0
  1  3  1  0  0  0
  3  4  2  0  0  0
  4  5  1  0  0  0
  5  6  2  0  0  0
  6  7  1  0  0  0
  6  8  1  0  0  0
  8 10  1  0  0  0
 10 12  1  0  0  0
 12 13  2  0  0  0
 13 14  1  0  0  0
 14 15  2  0  0  0
 15 16  1  0  0  0
 16 17  2  0  0  0
 17 18  1  0  0  0
 18 19  2  0  0  0
 18 20  2  0  0  0
 18 21  1  0  0  0
 21 22  1  0  0  0
 21 23  1  0  0  0
 21 24  1  0  0  0
  8  9  2  0  0  0
 27 31  1  0  0  0
 31 32  1  0  0  0
 32 33  1  0  0  0
 33 34  1  0  0  0
 34 35  1  0  0  0
 35 36  1  0  0  0
 35 37  1  0  0  0
 37 38  1  0  0  0
 38 39  1  0  0  0
 39 40  1  0  0  0
 40 41  1  0  0  0
 41 42  1  0  0  0
 30 25  1  0  0  0
  9  3  1  0  0  0
 36 31  1  0  0  0
 42 37  1  0  0  0
 17 12  1  0  0  0
  1  2  1  0  0  0
 10 11  1  0  0  0
M  END
> <minimizedAffinity>
-7.16082

> <CNNscore>
0.0731342360

> <CNNaffinity>
7.0723295212

> <CNN_VS>
0.5172294378

> <CNNaffinity_variance>
0.4295634329

$$$$
[H]c1nc(N([H])c2c([H])c([H])c(N3C([H])([H])C([H])([H])C([H])([H])[C@@]([H])(N4C([H])([H])C([H])([H])C([H])([H])C4([H])[H])C3([H])[H])c([H])c2OC([H])([H])[H])nc(N([H])c2c([H])c([H])c([H])c([H])c2S(=O)(=O)C([H])(C([H])([H])[H])C([H])([H])[H])c1Cl


 42 46  0  0  0  0  0  0  0  0999 V2000
   -0.7839  -53.4649  -19.4692 N   0  0  0  0  0  0  0  0  0  0  0  0
   -0.9601  -54.5237  -19.5185 H   0  0  0  0  0  0  0  0  0  0  0  0
   -1.1453  -52.8704  -18.2409 C   0  0  0  0  0  0  0  0  0  0  0  0
   -2.3075  -52.9916  -17.6069 N   0  0  0  0  0  0  0  0  0  0  0  0
   -2.6162  -52.4100  -16.4412 C   0  0  0  0  0  0  0  0  0  0  0  0
   -1.6718  -51.6126  -15.8212 C   0  0  0  0  0  0  0  0  0  0  0  0
   -1.9730  -50.8130  -14.3072 Cl  0  0  0  0  0  0  0  0  0  0  0  0
   -0.4248  -51.4475  -16.4444 C   0  0  0  0  0  0  0  0  0  0  0  0
   -0.2334  -52.0790  -17.6070 N   0  0  0  0  0  0  0  0  0  0  0  0
    0.5231  -50.6265  -15.8150 N   0  0  0  0  0  0  0  0  0  0  0  0
    0.3759  -49.5756  -15.9701 H   0  0  0  0  0  0  0  0  0  0  0  0
    1.6220  -50.9322  -15.0038 C   0  0  0  0  0  0  0  0  0  0  0  0
    1.6187  -51.9855  -14.1404 C   0  0  0  0  0  0  0  0  0  0  0  0
    2.6793  -52.3066  -13.2829 C   0  0  0  0  0  0  0  0  0  0  0  0
    3.7795  -51.4850  -13.3415 C   0  0  0  0  0  0  0  0  0  0  0  0
    3.8015  -50.4185  -14.2055 C   0  0  0  0  0  0  0  0  0  0  0  0
    2.7516  -50.1149  -15.0437 C   0  0  0  0  0  0  0  0  0  0  0  0
    2.8997  -48.7514  -16.1335 S   0  0  0  0  0  0  0  0  0  0  0  0
    1.7180  -47.8426  -16.1026 O   0  0  0  0  0  0  0  0  0  0  0  0
    4.0759  -47.8969  -15.6662 O   0  0  0  0  0  0  0  0  0  0  0  0
    3.2428  -49.2076  -17.7887 C   0  0  0  0  0  0  0  0  0  0  0  0
    2.0213  -48.9903  -18.6704 C   0  0  0  0  0  0  0  0  0  0  0  0
    3.5670  -50.7066  -17.7758 C   0  0  0  0  0  0  0  0  0  0  0  0
   -0.2899  -53.5225  -21.8185 C   0  0  0  0  0  0  0  0  0  0  0  0
    0.2199  -52.9712  -22.9521 C   0  0  0  0  0  0  0  0  0  0  0  0
    0.8209  -51.7056  -22.9951 C   0  0  0  0  0  0  0  0  0  0  0  0
    0.8732  -51.0301  -21.8126 C   0  0  0  0  0  0  0  0  0  0  0  0
    0.3514  -51.5903  -20.6444 C   0  0  0  0  0  0  0  0  0  0  0  0
   -0.2357  -52.8203  -20.5882 C   0  0  0  0  0  0  0  0  0  0  0  0
    1.3274  -51.1883  -24.2046 N   0  0  0  0  0  0  0  0  0  0  0  0
    2.6971  -50.7174  -24.2470 C   0  0  0  0  0  0  0  0  0  0  0  0
    3.1769  -50.5588  -25.6794 C   0  0  0  0  0  0  0  0  0  0  0  0
    2.7197  -51.7823  -26.4442 C   0  0  0  0  0  0  0  0  0  0  0  0
    1.2077  -51.8344  -26.5645 C   0  0  0  0  0  0  0  0  0  0  0  0
    0.5738  -51.0888  -25.4180 C   0  0  0  0  0  0  0  0  0  0  0  0
    0.8123  -53.2012  -26.6525 N   0  0  0  0  0  0  0  0  0  0  0  0
    1.1436  -53.6817  -27.9828 C   0  0  0  0  0  0  0  0  0  0  0  0
    0.0870  -52.9775  -28.8410 C   0  0  0  0  0  0  0  0  0  0  0  0
   -1.0719  -52.7100  -27.8918 C   0  0  0  0  0  0  0  0  0  0  0  0
   -0.6191  -53.3967  -26.6394 C   0  0  0  0  0  0  0  0  0  0  0  0
   -1.3542  -55.2903  -23.1046 C   0  0  0  0  0  0  0  0  0  0  0  0
   -0.8720  -54.7937  -21.8734 O   0  0  0  0  0  0  0  0  0  0  0  0
 41 42  1  0  0  0
 42 24  1  0  0  0
 24 25  2  0  0  0
 25 26  1  0  0  0
 26 27  2  0  0  0
 27 28  1  0  0  0
 28 29  2  0  0  0
 29  1  1  0  0  0
  1  3  1  0  0  0
  3  4  2  0  0  0
  4  5  1  0  0  0
  5  6  2  0  0  0
  6  7  1  0  0  0
  6  8  1  0  0  0
  8 10  1  0  0  0
 10 12  1  0  0  0
 12 13  2  0  0  0
 13 14  1  0  0  0
 14 15  2  0  0  0
 15 16  1  0  0  0
 16 17  2  0  0  0
 17 18  1  0  0  0
 18 19  2  0  0  0
 18 20  2  0  0  0
 18 21  1  0  0  0
 21 22  1  0  0  0
 21 23  1  0  0  0
  8  9  2  0  0  0
 26 30  1  0  0  0
 30 31  1  0  0  0
 31 32  1  0  0  0
 32 33  1  0  0  0
 33 34  1  0  0  0
 34 35  1  0  0  0
 34 36  1  0  0  0
 36 37  1  0  0  0
 37 38  1  0  0  0
 38 39  1  0  0  0
 39 40  1  0  0  0
 29 24  1  0  0  0
  9  3  1  0  0  0
 35 30  1  0  0  0
 40 36  1  0  0  0
 17 12  1  0  0  0
  1  2  1  0  0  0
 10 11  1  0  0  0
M  END
> <minimizedAffinity>
-8.41318

> <CNNscore>
0.4594644904

> <CNNaffinity>
7.8797178268

> <CNN_VS>
3.6204504967

> <CNNaffinity_variance>
0.0581416264

$$$$
[H]c1nc(N([H])c2c([H])c([H])c(N3C([H])([H])C([H])([H])C([H])([H])[C@@]([H])(N4C([H])([H])C([H])([H])C([H])([H])C4([H])[H])C3([H])[H])c([H])c2OC([H])([H])[H])nc(N([H])c2c([H])c([H])c([H])c([H])c2S(=O)(=O)C([H])(C([H])([H])[H])C([H])([H])[H])c1Cl


 42 46  0  0  0  0  0  0  0  0999 V2000
    0.3895  -53.7845  -20.7120 N   0  0  0  0  0  0  0  0  0  0  0  0
    0.7573  -54.7889  -20.6102 H   0  0  0  0  0  0  0  0  0  0  0  0
    0.3088  -53.3257  -22.0446 C   0  0  0  0  0  0  0  0  0  0  0  0
   -0.3685  -53.8858  -23.0420 N   0  0  0  0  0  0  0  0  0  0  0  0
   -0.4206  -53.4222  -24.2969 C   0  0  0  0  0  0  0  0  0  0  0  0
    0.2752  -52.2700  -24.6134 C   0  0  0  0  0  0  0  0  0  0  0  0
    0.2728  -51.5864  -26.2118 Cl  0  0  0  0  0  0  0  0  0  0  0  0
    1.0092  -51.6339  -23.5998 C   0  0  0  0  0  0  0  0  0  0  0  0
    0.9850  -52.1915  -22.3850 N   0  0  0  0  0  0  0  0  0  0  0  0
    1.7228  -50.4725  -23.9324 N   0  0  0  0  0  0  0  0  0  0  0  0
    1.7492  -50.2505  -24.9813 H   0  0  0  0  0  0  0  0  0  0  0  0
    2.3959  -49.5378  -23.1372 C   0  0  0  0  0  0  0  0  0  0  0  0
    1.7875  -48.8856  -22.1079 C   0  0  0  0  0  0  0  0  0  0  0  0
    2.4094  -47.9159  -21.3103 C   0  0  0  0  0  0  0  0  0  0  0  0
    3.7187  -47.6273  -21.6129 C   0  0  0  0  0  0  0  0  0  0  0  0
    4.3489  -48.2745  -22.6465 C   0  0  0  0  0  0  0  0  0  0  0  0
    3.7252  -49.2265  -23.4223 C   0  0  0  0  0  0  0  0  0  0  0  0
    4.6347  -50.0175  -24.6935 S   0  0  0  0  0  0  0  0  0  0  0  0
    3.7833  -50.4734  -25.8295 O   0  0  0  0  0  0  0  0  0  0  0  0
    5.5946  -48.9941  -25.2965 O   0  0  0  0  0  0  0  0  0  0  0  0
    5.6192  -51.3508  -24.1293 C   0  0  0  0  0  0  0  0  0  0  0  0
    4.9369  -52.0724  -22.9758 C   0  0  0  0  0  0  0  0  0  0  0  0
    6.9291  -50.7444  -23.6107 C   0  0  0  0  0  0  0  0  0  0  0  0
    1.0453  -52.2355  -18.9982 C   0  0  0  0  0  0  0  0  0  0  0  0
    0.7955  -51.5114  -17.8747 C   0  0  0  0  0  0  0  0  0  0  0  0
   -0.4309  -51.5330  -17.1964 C   0  0  0  0  0  0  0  0  0  0  0  0
   -1.3930  -52.3375  -17.7297 C   0  0  0  0  0  0  0  0  0  0  0  0
   -1.1433  -53.0840  -18.8835 C   0  0  0  0  0  0  0  0  0  0  0  0
    0.0449  -53.0725  -19.5534 C   0  0  0  0  0  0  0  0  0  0  0  0
   -0.6279  -50.7552  -16.0374 N   0  0  0  0  0  0  0  0  0  0  0  0
    0.0153  -49.4601  -15.9441 C   0  0  0  0  0  0  0  0  0  0  0  0
   -0.5979  -48.6235  -14.8344 C   0  0  0  0  0  0  0  0  0  0  0  0
   -2.1005  -48.7733  -14.9371 C   0  0  0  0  0  0  0  0  0  0  0  0
   -2.5447  -50.1895  -14.6207 C   0  0  0  0  0  0  0  0  0  0  0  0
   -1.4298  -51.1584  -14.9218 C   0  0  0  0  0  0  0  0  0  0  0  0
   -3.7473  -50.4529  -15.3394 N   0  0  0  0  0  0  0  0  0  0  0  0
   -4.7578  -49.5119  -14.8877 C   0  0  0  0  0  0  0  0  0  0  0  0
   -5.0843  -50.0514  -13.4909 C   0  0  0  0  0  0  0  0  0  0  0  0
   -4.7318  -51.5305  -13.5515 C   0  0  0  0  0  0  0  0  0  0  0  0
   -4.3701  -51.7100  -14.9945 C   0  0  0  0  0  0  0  0  0  0  0  0
    3.1418  -51.0484  -19.3265 C   0  0  0  0  0  0  0  0  0  0  0  0
    2.3022  -52.1492  -19.6070 O   0  0  0  0  0  0  0  0  0  0  0  0
 41 42  1  0  0  0
 42 24  1  0  0  0
 24 25  2  0  0  0
 25 26  1  0  0  0
 26 27  2  0  0  0
 27 28  1  0  0  0
 28 29  2  0  0  0
 29  1  1  0  0  0
  1  3  1  0  0  0
  3  4  2  0  0  0
  4  5  1  0  0  0
  5  6  2  0  0  0
  6  7  1  0  0  0
  6  8  1  0  0  0
  8 10  1  0  0  0
 10 12  1  0  0  0
 12 13  2  0  0  0
 13 14  1  0  0  0
 14 15  2  0  0  0
 15 16  1  0  0  0
 16 17  2  0  0  0
 17 18  1  0  0  0
 18 19  2  0  0  0
 18 20  2  0  0  0
 18 21  1  0  0  0
 21 22  1  0  0  0
 21 23  1  0  0  0
  8  9  2  0  0  0
 26 30  1  0  0  0
 30 31  1  0  0  0
 31 32  1  0  0  0
 32 33  1  0  0  0
 33 34  1  0  0  0
 34 35  1  0  0  0
 34 36  1  0  0  0
 36 37  1  0  0  0
 37 38  1  0  0  0
 38 39  1  0  0  0
 39 40  1  0  0  0
 29 24  1  0  0  0
  9  3  1  0  0  0
 35 30  1  0  0  0
 40 36  1  0  0  0
 17 12  1  0  0  0
  1  2  1  0  0  0
 10 11  1  0  0  0
M  END
> <minimizedAffinity>
-7.32145

> <CNNscore>
0.3730679750

> <CNNaffinity>
7.5882887840

> <CNN_VS>
2.8309476376

> <CNNaffinity_variance>
0.1145023331

$$$$
[H]c1nc(N([H])c2c([H])c([H])c(N3C([H])([H])C([H])([H])C([H])([H])[C@@]([H])(N4C([H])([H])C([H])([H])C([H])([H])C4([H])[H])C3([H])[H])c([H])c2OC([H])([H])[H])nc(N([H])c2c([H])c([H])c([H])c([H])c2S(=O)(=O)C([H])(C([H])([H])[H])C([H])([H])[H])c1Cl


 42 46  0  0  0  0  0  0  0  0999 V2000
    1.9639  -51.0555  -24.5163 N   0  0  0  0  0  0  0  0  0  0  0  0
    1.9071  -51.2798  -25.5655 H   0  0  0  0  0  0  0  0  0  0  0  0
    1.0870  -51.8130  -23.7101 C   0  0  0  0  0  0  0  0  0  0  0  0
   -0.0576  -52.3752  -24.0857 N   0  0  0  0  0  0  0  0  0  0  0  0
   -0.8664  -53.0869  -23.2909 C   0  0  0  0  0  0  0  0  0  0  0  0
   -0.5111  -53.2699  -21.9671 C   0  0  0  0  0  0  0  0  0  0  0  0
   -1.4911  -54.1765  -20.8536 Cl  0  0  0  0  0  0  0  0  0  0  0  0
    0.6882  -52.6988  -21.5129 C   0  0  0  0  0  0  0  0  0  0  0  0
    1.4123  -52.0096  -22.4005 N   0  0  0  0  0  0  0  0  0  0  0  0
    1.0348  -52.8784  -20.1652 N   0  0  0  0  0  0  0  0  0  0  0  0
    1.8285  -53.5801  -19.9987 H   0  0  0  0  0  0  0  0  0  0  0  0
    0.5406  -52.2919  -18.9944 C   0  0  0  0  0  0  0  0  0  0  0  0
   -0.6408  -52.6714  -18.4330 C   0  0  0  0  0  0  0  0  0  0  0  0
   -1.1927  -52.0877  -17.2849 C   0  0  0  0  0  0  0  0  0  0  0  0
   -0.4697  -51.0686  -16.7127 C   0  0  0  0  0  0  0  0  0  0  0  0
    0.7234  -50.6723  -17.2639 C   0  0  0  0  0  0  0  0  0  0  0  0
    1.2546  -51.2556  -18.3929 C   0  0  0  0  0  0  0  0  0  0  0  0
    2.8032  -50.6967  -18.9912 S   0  0  0  0  0  0  0  0  0  0  0  0
    3.7287  -50.2574  -17.9076 O   0  0  0  0  0  0  0  0  0  0  0  0
    3.5041  -51.8744  -19.6649 O   0  0  0  0  0  0  0  0  0  0  0  0
    2.6775  -49.4355  -20.1991 C   0  0  0  0  0  0  0  0  0  0  0  0
    3.3450  -48.1570  -19.7129 C   0  0  0  0  0  0  0  0  0  0  0  0
    1.1818  -49.1551  -20.3910 C   0  0  0  0  0  0  0  0  0  0  0  0
    4.2121  -50.4841  -23.8953 C   0  0  0  0  0  0  0  0  0  0  0  0
    5.1535  -49.5964  -23.4772 C   0  0  0  0  0  0  0  0  0  0  0  0
    4.8812  -48.2478  -23.2090 C   0  0  0  0  0  0  0  0  0  0  0  0
    3.5897  -47.8528  -23.3915 C   0  0  0  0  0  0  0  0  0  0  0  0
    2.6176  -48.7592  -23.8207 C   0  0  0  0  0  0  0  0  0  0  0  0
    2.8686  -50.0737  -24.0852 C   0  0  0  0  0  0  0  0  0  0  0  0
    5.9036  -47.3767  -22.7815 N   0  0  0  0  0  0  0  0  0  0  0  0
    5.7369  -45.9505  -22.9762 C   0  0  0  0  0  0  0  0  0  0  0  0
    6.7278  -45.1642  -22.1354 C   0  0  0  0  0  0  0  0  0  0  0  0
    6.7485  -45.7942  -20.7594 C   0  0  0  0  0  0  0  0  0  0  0  0
    7.3258  -47.1973  -20.7950 C   0  0  0  0  0  0  0  0  0  0  0  0
    7.1202  -47.8044  -22.1594 C   0  0  0  0  0  0  0  0  0  0  0  0
    6.7403  -47.9496  -19.7350 N   0  0  0  0  0  0  0  0  0  0  0  0
    7.0796  -47.3003  -18.4805 C   0  0  0  0  0  0  0  0  0  0  0  0
    8.5671  -47.6427  -18.3443 C   0  0  0  0  0  0  0  0  0  0  0  0
    8.7477  -48.9240  -19.1452 C   0  0  0  0  0  0  0  0  0  0  0  0
    7.3398  -49.2496  -19.5414 C   0  0  0  0  0  0  0  0  0  0  0  0
    5.9463  -52.1595  -24.2077 C   0  0  0  0  0  0  0  0  0  0  0  0
    4.5789  -51.8123  -24.1385 O   0  0  0  0  0  0  0  0  0  0  0  0
 41 42  1  0  0  0
 42 24  1  0  0  0
 24 25  2  0  0  0
 25 26  1  0  0  0
 26 27  2  0  0  0
 27 28  1  0  0  0
 28 29  2  0  0  0
 29  1  1  0  0  0
  1  3  1  0  0  0
  3  4  2  0  0  0
  4  5  1  0  0  0
  5  6  2  0  0  0
  6  7  1  0  0  0
  6  8  1  0  0  0
  8 10  1  0  0  0
 10 12  1  0  0  0
 12 13  2  0  0  0
 13 14  1  0  0  0
 14 15  2  0  0  0
 15 16  1  0  0  0
 16 17  2  0  0  0
 17 18  1  0  0  0
 18 19  2  0  0  0
 18 20  2  0  0  0
 18 21  1  0  0  0
 21 22  1  0  0  0
 21 23  1  0  0  0
  8  9  2  0  0  0
 26 30  1  0  0  0
 30 31  1  0  0  0
 31 32  1  0  0  0
 32 33  1  0  0  0
 33 34  1  0  0  0
 34 35  1  0  0  0
 34 36  1  0  0  0
 36 37  1  0  0  0
 37 38  1  0  0  0
 38 39  1  0  0  0
 39 40  1  0  0  0
 29 24  1  0  0  0
  9  3  1  0  0  0
 35 30  1  0  0  0
 40 36  1  0  0  0
 17 12  1  0  0  0
  1  2  1  0  0  0
 10 11  1  0  0  0
M  END
> <minimizedAffinity>
-6.44897

> <CNNscore>
0.3687972128

> <CNNaffinity>
7.3361229897

> <CNN_VS>
2.7055416107

> <CNNaffinity_variance>
0.1218959913

$$$$
[H]c1nc(N([H])c2c([H])c([H])c(N3C([H])([H])C([H])([H])C([H])([H])[C@@]([H])(N4C([H])([H])C([H])([H])C([H])([H])C4([H])[H])C3([H])[H])c([H])c2OC([H])([H])[H])nc(N([H])c2c([H])c([H])c([H])c([H])c2S(=O)(=O)C([H])(C([H])([H])[H])C([H])([H])[H])c1Cl


 42 46  0  0  0  0  0  0  0  0999 V2000
    0.3810  -53.4246  -19.7413 N   0  0  0  0  0  0  0  0  0  0  0  0
    1.0412  -54.2495  -19.5455 H   0  0  0  0  0  0  0  0  0  0  0  0
    0.2187  -53.1202  -21.1102 C   0  0  0  0  0  0  0  0  0  0  0  0
   -0.4615  -53.8247  -22.0092 N   0  0  0  0  0  0  0  0  0  0  0  0
   -0.5926  -53.5055  -23.3028 C   0  0  0  0  0  0  0  0  0  0  0  0
    0.0167  -52.3567  -23.7730 C   0  0  0  0  0  0  0  0  0  0  0  0
   -0.0922  -51.8541  -25.4336 Cl  0  0  0  0  0  0  0  0  0  0  0  0
    0.7494  -51.5719  -22.8686 C   0  0  0  0  0  0  0  0  0  0  0  0
    0.8086  -51.9931  -21.6012 N   0  0  0  0  0  0  0  0  0  0  0  0
    1.3752  -50.4148  -23.3566 N   0  0  0  0  0  0  0  0  0  0  0  0
    1.1527  -50.1855  -24.3803 H   0  0  0  0  0  0  0  0  0  0  0  0
    2.2286  -49.4920  -22.7407 C   0  0  0  0  0  0  0  0  0  0  0  0
    1.8288  -48.7160  -21.6953 C   0  0  0  0  0  0  0  0  0  0  0  0
    2.6349  -47.7535  -21.0731 C   0  0  0  0  0  0  0  0  0  0  0  0
    3.9062  -47.6081  -21.5746 C   0  0  0  0  0  0  0  0  0  0  0  0
    4.3273  -48.3813  -22.6277 C   0  0  0  0  0  0  0  0  0  0  0  0
    3.5241  -49.3245  -23.2296 C   0  0  0  0  0  0  0  0  0  0  0  0
    4.1751  -50.2829  -24.5436 S   0  0  0  0  0  0  0  0  0  0  0  0
    3.4256  -50.1149  -25.8216 O   0  0  0  0  0  0  0  0  0  0  0  0
    5.5884  -49.7850  -24.8383 O   0  0  0  0  0  0  0  0  0  0  0  0
    4.3161  -51.9873  -24.1687 C   0  0  0  0  0  0  0  0  0  0  0  0
    5.7675  -52.4380  -24.2535 C   0  0  0  0  0  0  0  0  0  0  0  0
    3.5142  -52.7423  -25.2360 C   0  0  0  0  0  0  0  0  0  0  0  0
    0.4568  -51.6373  -18.1392 C   0  0  0  0  0  0  0  0  0  0  0  0
   -0.0559  -50.9460  -17.0865 C   0  0  0  0  0  0  0  0  0  0  0  0
   -1.2561  -51.2862  -16.4474 C   0  0  0  0  0  0  0  0  0  0  0  0
   -1.9076  -52.3756  -16.9435 C   0  0  0  0  0  0  0  0  0  0  0  0
   -1.3868  -53.0904  -18.0245 C   0  0  0  0  0  0  0  0  0  0  0  0
   -0.2204  -52.7706  -18.6556 C   0  0  0  0  0  0  0  0  0  0  0  0
   -1.7362  -50.5255  -15.3621 N   0  0  0  0  0  0  0  0  0  0  0  0
   -2.4518  -51.1978  -14.2965 C   0  0  0  0  0  0  0  0  0  0  0  0
   -2.5541  -50.3150  -13.0646 C   0  0  0  0  0  0  0  0  0  0  0  0
   -1.1958  -49.6825  -12.8513 C   0  0  0  0  0  0  0  0  0  0  0  0
   -0.8459  -48.7176  -13.9693 C   0  0  0  0  0  0  0  0  0  0  0  0
   -1.5688  -49.1094  -15.2327 C   0  0  0  0  0  0  0  0  0  0  0  0
    0.5728  -48.6833  -14.1037 N   0  0  0  0  0  0  0  0  0  0  0  0
    1.1236  -48.0604  -12.9124 C   0  0  0  0  0  0  0  0  0  0  0  0
    0.7376  -46.5920  -13.1212 C   0  0  0  0  0  0  0  0  0  0  0  0
    0.5975  -46.4357  -14.6284 C   0  0  0  0  0  0  0  0  0  0  0  0
    1.0404  -47.7774  -15.1274 C   0  0  0  0  0  0  0  0  0  0  0  0
    2.7274  -50.8063  -17.8825 C   0  0  0  0  0  0  0  0  0  0  0  0
    1.6632  -51.2216  -18.7133 O   0  0  0  0  0  0  0  0  0  0  0  0
 41 42  1  0  0  0
 42 24  1  0  0  0
 24 25  2  0  0  0
 25 26  1  0  0  0
 26 27  2  0  0  0
 27 28  1  0  0  0
 28 29  2  0  0  0
 29  1  1  0  0  0
  1  3  1  0  0  0
  3  4  2  0  0  0
  4  5  1  0  0  0
  5  6  2  0  0  0
  6  7  1  0  0  0
  6  8  1  0  0  0
  8 10  1  0  0  0
 10 12  1  0  0  0
 12 13  2  0  0  0
 13 14  1  0  0  0
 14 15  2  0  0  0
 15 16  1  0  0  0
 16 17  2  0  0  0
 17 18  1  0  0  0
 18 19  2  0  0  0
 18 20  2  0  0  0
 18 21  1  0  0  0
 21 22  1  0  0  0
 21 23  1  0  0  0
  8  9  2  0  0  0
 26 30  1  0  0  0
 30 31  1  0  0  0
 31 32  1  0  0  0
 32 33  1  0  0  0
 33 34  1  0  0  0
 34 35  1  0  0  0
 34 36  1  0  0  0
 36 37  1  0  0  0
 37 38  1  0  0  0
 38 39  1  0  0  0
 39 40  1  0  0  0
 29 24  1  0  0  0
  9  3  1  0  0  0
 35 30  1  0  0  0
 40 36  1  0  0  0
 17 12  1  0  0  0
  1  2  1  0  0  0
 10 11  1  0  0  0
M  END
> <minimizedAffinity>
-6.88525

> <CNNscore>
0.3343718052

> <CNNaffinity>
7.3165540695

> <CNN_VS>
2.4464492798

> <CNNaffinity_variance>
0.0415593795

$$$$
[H]c1nc(N([H])c2c([H])c([H])c(N3C([H])([H])C([H])([H])C([H])([H])[C@@]([H])(N4C([H])([H])C([H])([H])C([H])([H])C4([H])[H])C3([H])[H])c([H])c2OC([H])([H])[H])nc(N([H])c2c([H])c([H])c([H])c([H])c2S(=O)(=O)C([H])(C([H])([H])[H])C([H])([H])[H])c1Cl


 42 46  0  0  0  0  0  0  0  0999 V2000
    0.6354  -53.3704  -23.5982 N   0  0  0  0  0  0  0  0  0  0  0  0
    0.3360  -54.2169  -24.1883 H   0  0  0  0  0  0  0  0  0  0  0  0
    0.0827  -53.3404  -22.2996 C   0  0  0  0  0  0  0  0  0  0  0  0
   -0.8340  -54.1652  -21.8030 N   0  0  0  0  0  0  0  0  0  0  0  0
   -1.3375  -54.1052  -20.5640 C   0  0  0  0  0  0  0  0  0  0  0  0
   -0.8886  -53.1170  -19.7071 C   0  0  0  0  0  0  0  0  0  0  0  0
   -1.4783  -52.9528  -18.0800 Cl  0  0  0  0  0  0  0  0  0  0  0  0
    0.0801  -52.2160  -20.1766 C   0  0  0  0  0  0  0  0  0  0  0  0
    0.5070  -52.3765  -21.4333 N   0  0  0  0  0  0  0  0  0  0  0  0
    0.5206  -51.2085  -19.3051 N   0  0  0  0  0  0  0  0  0  0  0  0
    0.3222  -51.3976  -18.2683 H   0  0  0  0  0  0  0  0  0  0  0  0
    1.1902  -50.0028  -19.5442 C   0  0  0  0  0  0  0  0  0  0  0  0
    1.0415  -49.3055  -20.7047 C   0  0  0  0  0  0  0  0  0  0  0  0
    1.7193  -48.1160  -21.0031 C   0  0  0  0  0  0  0  0  0  0  0  0
    2.5830  -47.6498  -20.0410 C   0  0  0  0  0  0  0  0  0  0  0  0
    2.7459  -48.3387  -18.8649 C   0  0  0  0  0  0  0  0  0  0  0  0
    2.0724  -49.5069  -18.5844 C   0  0  0  0  0  0  0  0  0  0  0  0
    2.3277  -50.2856  -17.0362 S   0  0  0  0  0  0  0  0  0  0  0  0
    1.1491  -51.0721  -16.5718 O   0  0  0  0  0  0  0  0  0  0  0  0
    3.4526  -51.3057  -17.1986 O   0  0  0  0  0  0  0  0  0  0  0  0
    2.8321  -49.1863  -15.7702 C   0  0  0  0  0  0  0  0  0  0  0  0
    3.6343  -49.9228  -14.7069 C   0  0  0  0  0  0  0  0  0  0  0  0
    1.5530  -48.6450  -15.1197 C   0  0  0  0  0  0  0  0  0  0  0  0
    0.9897  -51.6308  -25.2153 C   0  0  0  0  0  0  0  0  0  0  0  0
    1.7684  -50.6950  -25.8210 C   0  0  0  0  0  0  0  0  0  0  0  0
    3.1027  -50.4515  -25.4676 C   0  0  0  0  0  0  0  0  0  0  0  0
    3.6013  -51.2185  -24.4575 C   0  0  0  0  0  0  0  0  0  0  0  0
    2.8072  -52.1816  -23.8309 C   0  0  0  0  0  0  0  0  0  0  0  0
    1.5079  -52.4290  -24.1646 C   0  0  0  0  0  0  0  0  0  0  0  0
    3.8562  -49.4631  -26.1328 N   0  0  0  0  0  0  0  0  0  0  0  0
    3.8561  -49.4377  -27.5815 C   0  0  0  0  0  0  0  0  0  0  0  0
    4.3906  -48.1159  -28.1054 C   0  0  0  0  0  0  0  0  0  0  0  0
    3.7590  -47.0168  -27.2785 C   0  0  0  0  0  0  0  0  0  0  0  0
    4.2300  -47.0603  -25.8365 C   0  0  0  0  0  0  0  0  0  0  0  0
    4.6396  -48.4641  -25.4707 C   0  0  0  0  0  0  0  0  0  0  0  0
    3.1967  -46.5276  -25.0115 N   0  0  0  0  0  0  0  0  0  0  0  0
    2.9361  -45.1640  -25.4393 C   0  0  0  0  0  0  0  0  0  0  0  0
    4.1795  -44.4319  -24.9231 C   0  0  0  0  0  0  0  0  0  0  0  0
    4.6705  -45.2732  -23.7539 C   0  0  0  0  0  0  0  0  0  0  0  0
    3.5972  -46.3125  -23.6402 C   0  0  0  0  0  0  0  0  0  0  0  0
   -0.6001  -52.1633  -26.9762 C   0  0  0  0  0  0  0  0  0  0  0  0
   -0.3334  -51.8024  -25.6369 O   0  0  0  0  0  0  0  0  0  0  0  0
 41 42  1  0  0  0
 42 24  1  0  0  0
 24 25  2  0  0  0
 25 26  1  0  0  0
 26 27  2  0  0  0
 27 28  1  0  0  0
 28 29  2  0  0  0
 29  1  1  0  0  0
  1  3  1  0  0  0
  3  4  2  0  0  0
  4  5  1  0  0  0
  5  6  2  0  0  0
  6  7  1  0  0  0
  6  8  1  0  0  0
  8 10  1  0  0  0
 10 12  1  0  0  0
 12 13  2  0  0  0
 13 14  1  0  0  0
 14 15  2  0  0  0
 15 16  1  0  0  0
 16 17  2  0  0  0
 17 18  1  0  0  0
 18 19  2  0  0  0
 18 20  2  0  0  0
 18 21  1  0  0  0
 21 22  1  0  0  0
 21 23  1  0  0  0
  8  9  2  0  0  0
 26 30  1  0  0  0
 30 31  1  0  0  0
 31 32  1  0  0  0
 32 33  1  0  0  0
 33 34  1  0  0  0
 34 35  1  0  0  0
 34 36  1  0  0  0
 36 37  1  0  0  0
 37 38  1  0  0  0
 38 39  1  0  0  0
 39 40  1  0  0  0
 29 24  1  0  0  0
  9  3  1  0  0  0
 35 30  1  0  0  0
 40 36  1  0  0  0
 17 12  1  0  0  0
  1  2  1  0  0  0
 10 11  1  0  0  0
M  END
> <minimizedAffinity>
-7.18021

> <CNNscore>
0.3070282042

> <CNNaffinity>
7.4762067795

> <CNN_VS>
2.2954063416

> <CNNaffinity_variance>
0.1619964093

$$$$
[H]c1nc(N([H])c2c([H])c([H])c(N3C([H])([H])C([H])([H])C([H])([H])[C@@]([H])(N4C([H])([H])C([H])([H])C([H])([H])C4([H])[H])C3([H])[H])c([H])c2OC([H])([H])[H])nc(N([H])c2c([H])c([H])c([H])c([H])c2S(=O)(=O)C([H])(C([H])([H])[H])C([H])([H])[H])c1Cl


 42 46  0  0  0  0  0  0  0  0999 V2000
   -1.1002  -53.4576  -18.7672 N   0  0  0  0  0  0  0  0  0  0  0  0
   -1.4713  -54.4592  -18.8839 H   0  0  0  0  0  0  0  0  0  0  0  0
   -1.5382  -52.8069  -17.5935 C   0  0  0  0  0  0  0  0  0  0  0  0
   -2.7723  -52.7977  -17.0991 N   0  0  0  0  0  0  0  0  0  0  0  0
   -3.1522  -52.1663  -15.9814 C   0  0  0  0  0  0  0  0  0  0  0  0
   -2.2089  -51.4576  -15.2603 C   0  0  0  0  0  0  0  0  0  0  0  0
   -2.5994  -50.6038  -13.7972 Cl  0  0  0  0  0  0  0  0  0  0  0  0
   -0.8878  -51.4316  -15.7343 C   0  0  0  0  0  0  0  0  0  0  0  0
   -0.6292  -52.1007  -16.8624 N   0  0  0  0  0  0  0  0  0  0  0  0
    0.0604  -50.6996  -15.0036 N   0  0  0  0  0  0  0  0  0  0  0  0
   -0.1768  -49.6610  -14.8802 H   0  0  0  0  0  0  0  0  0  0  0  0
    1.2576  -51.0854  -14.3897 C   0  0  0  0  0  0  0  0  0  0  0  0
    1.3176  -52.1041  -13.4877 C   0  0  0  0  0  0  0  0  0  0  0  0
    2.4845  -52.5000  -12.8206 C   0  0  0  0  0  0  0  0  0  0  0  0
    3.6252  -51.7936  -13.1184 C   0  0  0  0  0  0  0  0  0  0  0  0
    3.5845  -50.7637  -14.0250 C   0  0  0  0  0  0  0  0  0  0  0  0
    2.4301  -50.3856  -14.6742 C   0  0  0  0  0  0  0  0  0  0  0  0
    2.4982  -49.0803  -15.8405 S   0  0  0  0  0  0  0  0  0  0  0  0
    1.4227  -48.0652  -15.6507 O   0  0  0  0  0  0  0  0  0  0  0  0
    3.8072  -48.3230  -15.6282 O   0  0  0  0  0  0  0  0  0  0  0  0
    2.5020  -49.6234  -17.5050 C   0  0  0  0  0  0  0  0  0  0  0  0
    3.6234  -50.6250  -17.7411 C   0  0  0  0  0  0  0  0  0  0  0  0
    2.7698  -48.3871  -18.3725 C   0  0  0  0  0  0  0  0  0  0  0  0
   -0.3384  -53.5206  -21.0437 C   0  0  0  0  0  0  0  0  0  0  0  0
    0.4463  -53.0732  -22.0600 C   0  0  0  0  0  0  0  0  0  0  0  0
    1.3706  -52.0285  -21.9223 C   0  0  0  0  0  0  0  0  0  0  0  0
    1.4508  -51.4627  -20.6851 C   0  0  0  0  0  0  0  0  0  0  0  0
    0.6478  -51.9173  -19.6366 C   0  0  0  0  0  0  0  0  0  0  0  0
   -0.2554  -52.9325  -19.7565 C   0  0  0  0  0  0  0  0  0  0  0  0
    2.1528  -51.6085  -23.0173 N   0  0  0  0  0  0  0  0  0  0  0  0
    1.4877  -51.1087  -24.2036 C   0  0  0  0  0  0  0  0  0  0  0  0
    2.4596  -50.3648  -25.1032 C   0  0  0  0  0  0  0  0  0  0  0  0
    3.3027  -49.4754  -24.2150 C   0  0  0  0  0  0  0  0  0  0  0  0
    4.1970  -50.2878  -23.2966 C   0  0  0  0  0  0  0  0  0  0  0  0
    3.5839  -51.6421  -23.0465 C   0  0  0  0  0  0  0  0  0  0  0  0
    4.4268  -49.5310  -22.1106 N   0  0  0  0  0  0  0  0  0  0  0  0
    5.3055  -48.4236  -22.4456 C   0  0  0  0  0  0  0  0  0  0  0  0
    6.6464  -49.1385  -22.6448 C   0  0  0  0  0  0  0  0  0  0  0  0
    6.5414  -50.4054  -21.8082 C   0  0  0  0  0  0  0  0  0  0  0  0
    5.2220  -50.2220  -21.1221 C   0  0  0  0  0  0  0  0  0  0  0  0
   -1.4685  -55.0100  -22.5983 C   0  0  0  0  0  0  0  0  0  0  0  0
   -1.2335  -54.5706  -21.2766 O   0  0  0  0  0  0  0  0  0  0  0  0
 41 42  1  0  0  0
 42 24  1  0  0  0
 24 25  2  0  0  0
 25 26  1  0  0  0
 26 27  2  0  0  0
 27 28  1  0  0  0
 28 29  2  0  0  0
 29  1  1  0  0  0
  1  3  1  0  0  0
  3  4  2  0  0  0
  4  5  1  0  0  0
  5  6  2  0  0  0
  6  7  1  0  0  0
  6  8  1  0  0  0
  8 10  1  0  0  0
 10 12  1  0  0  0
 12 13  2  0  0  0
 13 14  1  0  0  0
 14 15  2  0  0  0
 15 16  1  0  0  0
 16 17  2  0  0  0
 17 18  1  0  0  0
 18 19  2  0  0  0
 18 20  2  0  0  0
 18 21  1  0  0  0
 21 22  1  0  0  0
 21 23  1  0  0  0
  8  9  2  0  0  0
 26 30  1  0  0  0
 30 31  1  0  0  0
 31 32  1  0  0  0
 32 33  1  0  0  0
 33 34  1  0  0  0
 34 35  1  0  0  0
 34 36  1  0  0  0
 36 37  1  0  0  0
 37 38  1  0  0  0
 38 39  1  0  0  0
 39 40  1  0  0  0
 29 24  1  0  0  0
  9  3  1  0  0  0
 35 30  1  0  0  0
 40 36  1  0  0  0
 17 12  1  0  0  0
  1  2  1  0  0  0
 10 11  1  0  0  0
M  END
> <minimizedAffinity>
-7.57089

> <CNNscore>
0.2274756730

> <CNNaffinity>
7.3628616333

> <CNN_VS>
1.6748719215

> <CNNaffinity_variance>
0.1453582048

$$$$
[H]c1nc(N([H])c2c([H])c([H])c(N3C([H])([H])C([H])([H])C([H])([H])[C@@]([H])(N4C([H])([H])C([H])([H])C([H])([H])C4([H])[H])C3([H])[H])c([H])c2OC([H])([H])[H])nc(N([H])c2c([H])c([H])c([H])c([H])c2S(=O)(=O)C([H])(C([H])([H])[H])C([H])([H])[H])c1Cl


 42 46  0  0  0  0  0  0  0  0999 V2000
    2.2938  -50.8276  -24.0005 N   0  0  0  0  0  0  0  0  0  0  0  0
    2.4259  -50.9851  -25.0551 H   0  0  0  0  0  0  0  0  0  0  0  0
    1.2961  -51.6340  -23.4112 C   0  0  0  0  0  0  0  0  0  0  0  0
    0.2063  -52.1146  -24.0017 N   0  0  0  0  0  0  0  0  0  0  0  0
   -0.7213  -52.8766  -23.4092 C   0  0  0  0  0  0  0  0  0  0  0  0
   -0.5624  -53.2081  -22.0762 C   0  0  0  0  0  0  0  0  0  0  0  0
   -1.7088  -54.1910  -21.2149 Cl  0  0  0  0  0  0  0  0  0  0  0  0
    0.5704  -52.7288  -21.3997 C   0  0  0  0  0  0  0  0  0  0  0  0
    1.4272  -51.9766  -22.0978 N   0  0  0  0  0  0  0  0  0  0  0  0
    0.7174  -53.0591  -20.0440 N   0  0  0  0  0  0  0  0  0  0  0  0
    1.4447  -53.8222  -19.8473 H   0  0  0  0  0  0  0  0  0  0  0  0
    0.0950  -52.5584  -18.8947 C   0  0  0  0  0  0  0  0  0  0  0  0
   -1.0863  -53.0541  -18.4321 C   0  0  0  0  0  0  0  0  0  0  0  0
   -1.7642  -52.5600  -17.3098 C   0  0  0  0  0  0  0  0  0  0  0  0
   -1.1717  -51.5063  -16.6559 C   0  0  0  0  0  0  0  0  0  0  0  0
    0.0189  -50.9933  -17.1070 C   0  0  0  0  0  0  0  0  0  0  0  0
    0.6750  -51.4894  -18.2118 C   0  0  0  0  0  0  0  0  0  0  0  0
    2.2085  -50.7833  -18.6791 S   0  0  0  0  0  0  0  0  0  0  0  0
    3.1902  -51.7876  -19.1801 O   0  0  0  0  0  0  0  0  0  0  0  0
    1.9584  -49.8439  -19.8569 O   0  0  0  0  0  0  0  0  0  0  0  0
    2.9509  -49.8175  -17.4215 C   0  0  0  0  0  0  0  0  0  0  0  0
    4.1129  -49.0088  -17.9802 C   0  0  0  0  0  0  0  0  0  0  0  0
    3.5034  -50.7981  -16.3795 C   0  0  0  0  0  0  0  0  0  0  0  0
    4.3826  -50.3037  -22.9379 C   0  0  0  0  0  0  0  0  0  0  0  0
    5.2251  -49.4451  -22.3039 C   0  0  0  0  0  0  0  0  0  0  0  0
    4.9020  -48.1108  -22.0210 C   0  0  0  0  0  0  0  0  0  0  0  0
    3.6666  -47.6986  -22.4224 C   0  0  0  0  0  0  0  0  0  0  0  0
    2.7961  -48.5751  -23.0741 C   0  0  0  0  0  0  0  0  0  0  0  0
    3.0974  -49.8755  -23.3556 C   0  0  0  0  0  0  0  0  0  0  0  0
    5.8224  -47.2697  -21.3633 N   0  0  0  0  0  0  0  0  0  0  0  0
    6.9425  -46.7352  -22.1111 C   0  0  0  0  0  0  0  0  0  0  0  0
    7.5926  -45.5791  -21.3707 C   0  0  0  0  0  0  0  0  0  0  0  0
    6.4788  -44.6991  -20.8455 C   0  0  0  0  0  0  0  0  0  0  0  0
    5.6613  -45.4069  -19.7806 C   0  0  0  0  0  0  0  0  0  0  0  0
    5.7330  -46.8989  -19.9832 C   0  0  0  0  0  0  0  0  0  0  0  0
    4.3356  -44.8837  -19.8123 N   0  0  0  0  0  0  0  0  0  0  0  0
    4.4056  -43.4606  -19.5288 C   0  0  0  0  0  0  0  0  0  0  0  0
    4.7253  -43.4564  -18.0299 C   0  0  0  0  0  0  0  0  0  0  0  0
    4.1834  -44.7806  -17.5115 C   0  0  0  0  0  0  0  0  0  0  0  0
    3.5022  -45.3391  -18.7236 C   0  0  0  0  0  0  0  0  0  0  0  0
    5.7569  -51.8812  -24.1768 C   0  0  0  0  0  0  0  0  0  0  0  0
    4.7936  -51.6196  -23.1774 O   0  0  0  0  0  0  0  0  0  0  0  0
 41 42  1  0  0  0
 42 24  1  0  0  0
 24 25  2  0  0  0
 25 26  1  0  0  0
 26 27  2  0  0  0
 27 28  1  0  0  0
 28 29  2  0  0  0
 29  1  1  0  0  0
  1  3  1  0  0  0
  3  4  2  0  0  0
  4  5  1  0  0  0
  5  6  2  0  0  0
  6  7  1  0  0  0
  6  8  1  0  0  0
  8 10  1  0  0  0
 10 12  1  0  0  0
 12 13  2  0  0  0
 13 14  1  0  0  0
 14 15  2  0  0  0
 15 16  1  0  0  0
 16 17  2  0  0  0
 17 18  1  0  0  0
 18 19  2  0  0  0
 18 20  2  0  0  0
 18 21  1  0  0  0
 21 22  1  0  0  0
 21 23  1  0  0  0
  8  9  2  0  0  0
 26 30  1  0  0  0
 30 31  1  0  0  0
 31 32  1  0  0  0
 32 33  1  0  0  0
 33 34  1  0  0  0
 34 35  1  0  0  0
 34 36  1  0  0  0
 36 37  1  0  0  0
 37 38  1  0  0  0
 38 39  1  0  0  0
 39 40  1  0  0  0
 29 24  1  0  0  0
  9  3  1  0  0  0
 35 30  1  0  0  0
 40 36  1  0  0  0
 17 12  1  0  0  0
  1  2  1  0  0  0
 10 11  1  0  0  0
M  END
> <minimizedAffinity>
-6.39483

> <CNNscore>
0.2034219503

> <CNNaffinity>
6.9239287376

> <CNN_VS>
1.4084790945

> <CNNaffinity_variance>
0.3252093792

$$$$
[H]c1nc(N([H])c2c([H])c([H])c(N3C([H])([H])C([H])([H])C([H])([H])[C@@]([H])(N4C([H])([H])C([H])([H])C([H])([H])C4([H])[H])C3([H])[H])c([H])c2OC([H])([H])[H])nc(N([H])c2c([H])c([H])c([H])c([H])c2S(=O)(=O)C([H])(C([H])([H])[H])C([H])([H])[H])c1Cl


 42 46  0  0  0  0  0  0  0  0999 V2000
    0.7063  -52.9171  -20.1233 N   0  0  0  0  0  0  0  0  0  0  0  0
    0.7779  -53.9684  -19.9134 H   0  0  0  0  0  0  0  0  0  0  0  0
    0.5111  -52.6070  -21.4866 C   0  0  0  0  0  0  0  0  0  0  0  0
   -0.5211  -52.9610  -22.2459 N   0  0  0  0  0  0  0  0  0  0  0  0
   -0.6719  -52.6494  -23.5391 C   0  0  0  0  0  0  0  0  0  0  0  0
    0.3074  -51.9001  -24.1649 C   0  0  0  0  0  0  0  0  0  0  0  0
    0.2070  -51.4431  -25.8392 Cl  0  0  0  0  0  0  0  0  0  0  0  0
    1.4219  -51.4970  -23.4126 C   0  0  0  0  0  0  0  0  0  0  0  0
    1.4609  -51.8690  -22.1292 N   0  0  0  0  0  0  0  0  0  0  0  0
    2.4172  -50.7480  -24.0585 N   0  0  0  0  0  0  0  0  0  0  0  0
    2.0462  -49.9673  -24.6934 H   0  0  0  0  0  0  0  0  0  0  0  0
    3.8139  -50.8254  -24.0108 C   0  0  0  0  0  0  0  0  0  0  0  0
    4.4911  -51.9626  -24.3317 C   0  0  0  0  0  0  0  0  0  0  0  0
    5.8840  -52.0980  -24.2622 C   0  0  0  0  0  0  0  0  0  0  0  0
    6.5826  -50.9927  -23.8390 C   0  0  0  0  0  0  0  0  0  0  0  0
    5.9176  -49.8374  -23.5114 C   0  0  0  0  0  0  0  0  0  0  0  0
    4.5474  -49.7181  -23.5850 C   0  0  0  0  0  0  0  0  0  0  0  0
    3.8037  -48.1851  -23.1783 S   0  0  0  0  0  0  0  0  0  0  0  0
    2.4087  -48.3244  -22.6703 O   0  0  0  0  0  0  0  0  0  0  0  0
    4.5913  -47.5675  -22.0249 O   0  0  0  0  0  0  0  0  0  0  0  0
    3.8363  -47.0188  -24.4838 C   0  0  0  0  0  0  0  0  0  0  0  0
    2.8879  -45.8635  -24.1963 C   0  0  0  0  0  0  0  0  0  0  0  0
    3.3414  -47.7472  -25.7395 C   0  0  0  0  0  0  0  0  0  0  0  0
    2.1116  -51.5412  -18.7454 C   0  0  0  0  0  0  0  0  0  0  0  0
    2.3026  -50.6603  -17.7274 C   0  0  0  0  0  0  0  0  0  0  0  0
    1.2631  -50.1595  -16.9315 C   0  0  0  0  0  0  0  0  0  0  0  0
    0.0123  -50.6087  -17.2327 C   0  0  0  0  0  0  0  0  0  0  0  0
   -0.1912  -51.5136  -18.2771 C   0  0  0  0  0  0  0  0  0  0  0  0
    0.8107  -52.0089  -19.0591 C   0  0  0  0  0  0  0  0  0  0  0  0
    1.5271  -49.2443  -15.8923 N   0  0  0  0  0  0  0  0  0  0  0  0
    2.7059  -48.4062  -15.9784 C   0  0  0  0  0  0  0  0  0  0  0  0
    2.6273  -47.2493  -14.9972 C   0  0  0  0  0  0  0  0  0  0  0  0
    1.2262  -46.6833  -15.0816 C   0  0  0  0  0  0  0  0  0  0  0  0
    0.1921  -47.6705  -14.5725 C   0  0  0  0  0  0  0  0  0  0  0  0
    0.7024  -49.0797  -14.7335 C   0  0  0  0  0  0  0  0  0  0  0  0
   -1.0369  -47.4213  -15.2505 N   0  0  0  0  0  0  0  0  0  0  0  0
   -1.5134  -46.1080  -14.8521 C   0  0  0  0  0  0  0  0  0  0  0  0
   -1.9773  -46.3673  -13.4146 C   0  0  0  0  0  0  0  0  0  0  0  0
   -2.3086  -47.8519  -13.3731 C   0  0  0  0  0  0  0  0  0  0  0  0
   -2.1289  -48.2556  -14.8049 C   0  0  0  0  0  0  0  0  0  0  0  0
    4.0439  -51.0472  -20.1362 C   0  0  0  0  0  0  0  0  0  0  0  0
    3.2123  -51.9858  -19.4860 O   0  0  0  0  0  0  0  0  0  0  0  0
 41 42  1  0  0  0
 42 24  1  0  0  0
 24 25  2  0  0  0
 25 26  1  0  0  0
 26 27  2  0  0  0
 27 28  1  0  0  0
 28 29  2  0  0  0
 29  1  1  0  0  0
  1  3  1  0  0  0
  3  4  2  0  0  0
  4  5  1  0  0  0
  5  6  2  0  0  0
  6  7  1  0  0  0
  6  8  1  0  0  0
  8 10  1  0  0  0
 10 12  1  0  0  0
 12 13  2  0  0  0
 13 14  1  0  0  0
 14 15  2  0  0  0
 15 16  1  0  0  0
 16 17  2  0  0  0
 17 18  1  0  0  0
 18 19  2  0  0  0
 18 20  2  0  0  0
 18 21  1  0  0  0
 21 22  1  0  0  0
 21 23  1  0  0  0
  8  9  2  0  0  0
 26 30  1  0  0  0
 30 31  1  0  0  0
 31 32  1  0  0  0
 32 33  1  0  0  0
 33 34  1  0  0  0
 34 35  1  0  0  0
 34 36  1  0  0  0
 36 37  1  0  0  0
 37 38  1  0  0  0
 38 39  1  0  0  0
 39 40  1  0  0  0
 29 24  1  0  0  0
  9  3  1  0  0  0
 35 30  1  0  0  0
 40 36  1  0  0  0
 17 12  1  0  0  0
  1  2  1  0  0  0
 10 11  1  0  0  0
M  END
> <minimizedAffinity>
-6.82412

> <CNNscore>
0.1827512085

> <CNNaffinity>
6.9888038635

> <CNN_VS>
1.2772123814

> <CNNaffinity_variance>
0.1748774946

$$$$
[H]c1nc(N([H])c2c([H])c([H])c(N3C([H])([H])C([H])([H])C([H])([H])[C@@]([H])(N4C([H])([H])C([H])([H])C([H])([H])C4([H])[H])C3([H])[H])c([H])c2OC([H])([H])[H])nc(N([H])c2c([H])c([H])c([H])c([H])c2S(=O)(=O)C([H])(C([H])([H])[H])C([H])([H])[H])c1Cl


 42 46  0  0  0  0  0  0  0  0999 V2000
    1.3621  -52.1251  -19.8176 N   0  0  0  0  0  0  0  0  0  0  0  0
    2.4242  -52.0465  -19.9600 H   0  0  0  0  0  0  0  0  0  0  0  0
    0.6959  -52.8811  -20.8063 C   0  0  0  0  0  0  0  0  0  0  0  0
   -0.0298  -53.9788  -20.6176 N   0  0  0  0  0  0  0  0  0  0  0  0
   -0.6472  -54.6722  -21.5821 C   0  0  0  0  0  0  0  0  0  0  0  0
   -0.5407  -54.2378  -22.8906 C   0  0  0  0  0  0  0  0  0  0  0  0
   -1.3033  -55.0664  -24.2150 Cl  0  0  0  0  0  0  0  0  0  0  0  0
    0.2137  -53.0829  -23.1510 C   0  0  0  0  0  0  0  0  0  0  0  0
    0.7837  -52.4757  -22.1053 N   0  0  0  0  0  0  0  0  0  0  0  0
    0.3274  -52.6563  -24.4829 N   0  0  0  0  0  0  0  0  0  0  0  0
   -0.4757  -52.9688  -25.1213 H   0  0  0  0  0  0  0  0  0  0  0  0
    1.2960  -51.8789  -25.1283 C   0  0  0  0  0  0  0  0  0  0  0  0
    1.8623  -50.7877  -24.5422 C   0  0  0  0  0  0  0  0  0  0  0  0
    2.8061  -49.9588  -25.1632 C   0  0  0  0  0  0  0  0  0  0  0  0
    3.1618  -50.2968  -26.4470 C   0  0  0  0  0  0  0  0  0  0  0  0
    2.6020  -51.3933  -27.0543 C   0  0  0  0  0  0  0  0  0  0  0  0
    1.6754  -52.1999  -26.4315 C   0  0  0  0  0  0  0  0  0  0  0  0
    1.0520  -53.5963  -27.2859 S   0  0  0  0  0  0  0  0  0  0  0  0
    1.9872  -54.1164  -28.3243 O   0  0  0  0  0  0  0  0  0  0  0  0
    0.8943  -54.7353  -26.2808 O   0  0  0  0  0  0  0  0  0  0  0  0
   -0.5268  -53.3389  -27.9976 C   0  0  0  0  0  0  0  0  0  0  0  0
   -0.3988  -52.6940  -29.3704 C   0  0  0  0  0  0  0  0  0  0  0  0
   -1.2736  -52.3663  -27.0763 C   0  0  0  0  0  0  0  0  0  0  0  0
    1.1974  -50.1625  -18.4437 C   0  0  0  0  0  0  0  0  0  0  0  0
    0.6867  -49.4761  -17.3868 C   0  0  0  0  0  0  0  0  0  0  0  0
   -0.2604  -50.0096  -16.5018 C   0  0  0  0  0  0  0  0  0  0  0  0
   -0.6597  -51.2877  -16.7555 C   0  0  0  0  0  0  0  0  0  0  0  0
   -0.1393  -51.9986  -17.8393 C   0  0  0  0  0  0  0  0  0  0  0  0
    0.7824  -51.4920  -18.7079 C   0  0  0  0  0  0  0  0  0  0  0  0
   -0.7540  -49.2439  -15.4261 N   0  0  0  0  0  0  0  0  0  0  0  0
   -0.6604  -47.7995  -15.4922 C   0  0  0  0  0  0  0  0  0  0  0  0
   -1.5602  -47.1452  -14.4579 C   0  0  0  0  0  0  0  0  0  0  0  0
   -2.8879  -47.8709  -14.4944 C   0  0  0  0  0  0  0  0  0  0  0  0
   -2.7555  -49.3047  -14.0149 C   0  0  0  0  0  0  0  0  0  0  0  0
   -1.3503  -49.7980  -14.2481 C   0  0  0  0  0  0  0  0  0  0  0  0
   -3.7562  -50.0874  -14.6615 N   0  0  0  0  0  0  0  0  0  0  0  0
   -5.0515  -49.6775  -14.1470 C   0  0  0  0  0  0  0  0  0  0  0  0
   -5.0291  -50.2731  -12.7351 C   0  0  0  0  0  0  0  0  0  0  0  0
   -4.0643  -51.4467  -12.8217 C   0  0  0  0  0  0  0  0  0  0  0  0
   -3.7406  -51.4819  -14.2843 C   0  0  0  0  0  0  0  0  0  0  0  0
    1.7049  -48.7290  -20.3409 C   0  0  0  0  0  0  0  0  0  0  0  0
    2.1399  -49.5458  -19.2738 O   0  0  0  0  0  0  0  0  0  0  0  0
 41 42  1  0  0  0
 42 24  1  0  0  0
 24 25  2  0  0  0
 25 26  1  0  0  0
 26 27  2  0  0  0
 27 28  1  0  0  0
 28 29  2  0  0  0
 29  1  1  0  0  0
  1  3  1  0  0  0
  3  4  2  0  0  0
  4  5  1  0  0  0
  5  6  2  0  0  0
  6  7  1  0  0  0
  6  8  1  0  0  0
  8 10  1  0  0  0
 10 12  1  0  0  0
 12 13  2  0  0  0
 13 14  1  0  0  0
 14 15  2  0  0  0
 15 16  1  0  0  0
 16 17  2  0  0  0
 17 18  1  0  0  0
 18 19  2  0  0  0
 18 20  2  0  0  0
 18 21  1  0  0  0
 21 22  1  0  0  0
 21 23  1  0  0  0
  8  9  2  0  0  0
 26 30  1  0  0  0
 30 31  1  0  0  0
 31 32  1  0  0  0
 32 33  1  0  0  0
 33 34  1  0  0  0
 34 35  1  0  0  0
 34 36  1  0  0  0
 36 37  1  0  0  0
 37 38  1  0  0  0
 38 39  1  0  0  0
 39 40  1  0  0  0
 29 24  1  0  0  0
  9  3  1  0  0  0
 35 30  1  0  0  0
 40 36  1  0  0  0
 17 12  1  0  0  0
  1  2  1  0  0  0
 10 11  1  0  0  0
M  END
> <minimizedAffinity>
-8.40178

> <CNNscore>
0.1814508736

> <CNNaffinity>
7.2921576500

> <CNN_VS>
1.3231683969

> <CNNaffinity_variance>
0.2783848643

$$$$
[H]c1nc(N([H])c2c([H])c([H])c(N3C([H])([H])C([H])([H])C([H])(N4C([H])([H])C([H])([H])N(C([H])([H])[H])C([H])([H])C4([H])[H])C([H])([H])C3([H])[H])c([H])c2OC([H])([H])[H])nc(N([H])c2c([H])c([H])c([H])c([H])c2S(=O)(=O)C(C([H])([H])[H])(C([H])([H])[H])C([H])([H])[H])c1Cl


 45 49  0  0  0  0  0  0  0  0999 V2000
    3.2272  -50.6813  -21.1737 N   0  0  0  0  0  0  0  0  0  0  0  0
    3.7835  -50.8389  -20.2493 H   0  0  0  0  0  0  0  0  0  0  0  0
    1.9719  -51.3194  -21.1514 C   0  0  0  0  0  0  0  0  0  0  0  0
    1.3346  -51.6502  -20.0283 N   0  0  0  0  0  0  0  0  0  0  0  0
    0.1433  -52.2521  -19.9879 C   0  0  0  0  0  0  0  0  0  0  0  0
   -0.4776  -52.5553  -21.1693 C   0  0  0  0  0  0  0  0  0  0  0  0
   -2.0439  -53.3442  -21.2285 Cl  0  0  0  0  0  0  0  0  0  0  0  0
    0.1491  -52.2291  -22.3908 C   0  0  0  0  0  0  0  0  0  0  0  0
    1.3274  -51.6353  -22.2869 N   0  0  0  0  0  0  0  0  0  0  0  0
   -0.5076  -52.5598  -23.5969 N   0  0  0  0  0  0  0  0  0  0  0  0
   -1.1104  -51.8030  -24.0145 H   0  0  0  0  0  0  0  0  0  0  0  0
   -0.4643  -53.7662  -24.3348 C   0  0  0  0  0  0  0  0  0  0  0  0
   -0.8638  -54.9869  -23.8530 C   0  0  0  0  0  0  0  0  0  0  0  0
   -0.8114  -56.1773  -24.5643 C   0  0  0  0  0  0  0  0  0  0  0  0
   -0.3233  -56.1057  -25.8345 C   0  0  0  0  0  0  0  0  0  0  0  0
    0.0956  -54.9137  -26.3808 C   0  0  0  0  0  0  0  0  0  0  0  0
    0.0327  -53.7567  -25.6588 C   0  0  0  0  0  0  0  0  0  0  0  0
    0.5656  -52.2634  -26.3596 S   0  0  0  0  0  0  0  0  0  0  0  0
    0.0642  -51.1325  -25.5079 O   0  0  0  0  0  0  0  0  0  0  0  0
    0.0349  -52.1615  -27.7641 O   0  0  0  0  0  0  0  0  0  0  0  0
    2.3333  -52.0779  -26.4115 C   0  0  0  0  0  0  0  0  0  0  0  0
    2.8062  -50.6740  -26.2757 C   0  0  0  0  0  0  0  0  0  0  0  0
    2.8413  -52.8588  -25.1809 C   0  0  0  0  0  0  0  0  0  0  0  0
    2.8841  -52.7531  -27.6310 C   0  0  0  0  0  0  0  0  0  0  0  0
    3.4774  -48.5659  -22.2817 C   0  0  0  0  0  0  0  0  0  0  0  0
    4.0467  -47.7585  -23.2404 C   0  0  0  0  0  0  0  0  0  0  0  0
    4.9927  -48.2034  -24.1311 C   0  0  0  0  0  0  0  0  0  0  0  0
    5.3473  -49.5500  -24.0025 C   0  0  0  0  0  0  0  0  0  0  0  0
    4.7725  -50.3650  -23.0347 C   0  0  0  0  0  0  0  0  0  0  0  0
    3.8358  -49.9101  -22.1574 C   0  0  0  0  0  0  0  0  0  0  0  0
    5.6204  -47.4013  -25.1196 N   0  0  0  0  0  0  0  0  0  0  0  0
    6.9784  -47.5867  -25.4899 C   0  0  0  0  0  0  0  0  0  0  0  0
    7.7773  -46.3146  -25.6319 C   0  0  0  0  0  0  0  0  0  0  0  0
    7.0179  -45.2243  -26.3958 C   0  0  0  0  0  0  0  0  0  0  0  0
    5.6228  -45.0784  -25.9046 C   0  0  0  0  0  0  0  0  0  0  0  0
    4.8497  -46.3577  -25.7606 C   0  0  0  0  0  0  0  0  0  0  0  0
    7.1643  -45.3109  -27.7813 N   0  0  0  0  0  0  0  0  0  0  0  0
    8.4661  -45.5749  -28.2900 C   0  0  0  0  0  0  0  0  0  0  0  0
    8.9329  -44.3700  -29.0776 C   0  0  0  0  0  0  0  0  0  0  0  0
    7.9012  -43.8638  -29.9624 N   0  0  0  0  0  0  0  0  0  0  0  0
    7.3761  -42.5986  -29.5139 C   0  0  0  0  0  0  0  0  0  0  0  0
    6.8124  -44.8165  -30.0837 C   0  0  0  0  0  0  0  0  0  0  0  0
    6.1894  -44.8906  -28.6758 C   0  0  0  0  0  0  0  0  0  0  0  0
    2.9246  -47.4486  -20.1944 C   0  0  0  0  0  0  0  0  0  0  0  0
    2.5302  -48.0687  -21.4089 O   0  0  0  0  0  0  0  0  0  0  0  0
 44 45  1  0  0  0
 45 25  1  0  0  0
 25 26  2  0  0  0
 26 27  1  0  0  0
 27 28  2  0  0  0
 28 29  1  0  0  0
 29 30  2  0  0  0
 30  1  1  0  0  0
  1  3  1  0  0  0
  3  4  2  0  0  0
  4  5  1  0  0  0
  5  6  2  0  0  0
  6  7  1  0  0  0
  6  8  1  0  0  0
  8 10  1  0  0  0
 10 12  1  0  0  0
 12 13  2  0  0  0
 13 14  1  0  0  0
 14 15  2  0  0  0
 15 16  1  0  0  0
 16 17  2  0  0  0
 17 18  1  0  0  0
 18 19  2  0  0  0
 18 20  2  0  0  0
 18 21  1  0  0  0
 21 22  1  0  0  0
 21 23  1  0  0  0
 21 24  1  0  0  0
  8  9  2  0  0  0
 27 31  1  0  0  0
 31 32  1  0  0  0
 32 33  1  0  0  0
 33 34  1  0  0  0
 34 35  1  0  0  0
 35 36  1  0  0  0
 34 37  1  0  0  0
 37 38  1  0  0  0
 38 39  1  0  0  0
 39 40  1  0  0  0
 40 41  1  0  0  0
 40 42  1  0  0  0
 42 43  1  0  0  0
 30 25  1  0  0  0
  9  3  1  0  0  0
 36 31  1  0  0  0
 43 37  1  0  0  0
 17 12  1  0  0  0
  1  2  1  0  0  0
 10 11  1  0  0  0
M  END
> <minimizedAffinity>
-6.52479

> <CNNscore>
0.1007889658

> <CNNaffinity>
6.8916144371

> <CNN_VS>
0.6945986748

> <CNNaffinity_variance>
0.4158843160

$$$$
[H]c1nc(N([H])c2c([H])c([H])c(N3C([H])([H])C([H])([H])C([H])(N4C([H])([H])C([H])([H])N(C([H])([H])[H])C([H])([H])C4([H])[H])C([H])([H])C3([H])[H])c([H])c2OC([H])([H])[H])nc(N([H])c2c([H])c([H])c([H])c([H])c2S(=O)(=O)C(C([H])([H])[H])(C([H])([H])[H])C([H])([H])[H])c1Cl


 45 49  0  0  0  0  0  0  0  0999 V2000
    3.4706  -51.2505  -20.6406 N   0  0  0  0  0  0  0  0  0  0  0  0
    3.9474  -51.3946  -19.6706 H   0  0  0  0  0  0  0  0  0  0  0  0
    2.1671  -51.7826  -20.6740 C   0  0  0  0  0  0  0  0  0  0  0  0
    1.4837  -52.1243  -19.5817 N   0  0  0  0  0  0  0  0  0  0  0  0
    0.2465  -52.6267  -19.5941 C   0  0  0  0  0  0  0  0  0  0  0  0
   -0.3745  -52.8081  -20.8001 C   0  0  0  0  0  0  0  0  0  0  0  0
   -1.9987  -53.4597  -20.9283 Cl  0  0  0  0  0  0  0  0  0  0  0  0
    0.2999  -52.4644  -21.9910 C   0  0  0  0  0  0  0  0  0  0  0  0
    1.5206  -51.9773  -21.8354 N   0  0  0  0  0  0  0  0  0  0  0  0
   -0.3587  -52.6688  -23.2239 N   0  0  0  0  0  0  0  0  0  0  0  0
   -0.8991  -51.8452  -23.5983 H   0  0  0  0  0  0  0  0  0  0  0  0
   -0.3892  -53.8253  -24.0383 C   0  0  0  0  0  0  0  0  0  0  0  0
   -0.8442  -55.0528  -23.6286 C   0  0  0  0  0  0  0  0  0  0  0  0
   -0.8643  -56.1956  -24.4156 C   0  0  0  0  0  0  0  0  0  0  0  0
   -0.3924  -56.0664  -25.6874 C   0  0  0  0  0  0  0  0  0  0  0  0
    0.0795  -54.8642  -26.1637 C   0  0  0  0  0  0  0  0  0  0  0  0
    0.0876  -53.7549  -25.3679 C   0  0  0  0  0  0  0  0  0  0  0  0
    0.6867  -52.2482  -25.9810 S   0  0  0  0  0  0  0  0  0  0  0  0
    0.0127  -51.1304  -25.2379 O   0  0  0  0  0  0  0  0  0  0  0  0
    0.4010  -52.1685  -27.4564 O   0  0  0  0  0  0  0  0  0  0  0  0
    2.4307  -52.0071  -25.7321 C   0  0  0  0  0  0  0  0  0  0  0  0
    3.0452  -52.9447  -24.7541 C   0  0  0  0  0  0  0  0  0  0  0  0
    3.0626  -52.2958  -27.1103 C   0  0  0  0  0  0  0  0  0  0  0  0
    2.7080  -50.5715  -25.4024 C   0  0  0  0  0  0  0  0  0  0  0  0
    3.9764  -49.2345  -21.8427 C   0  0  0  0  0  0  0  0  0  0  0  0
    4.6762  -48.5367  -22.8012 C   0  0  0  0  0  0  0  0  0  0  0  0
    5.6376  -49.1117  -23.5957 C   0  0  0  0  0  0  0  0  0  0  0  0
    5.8650  -50.4725  -23.3680 C   0  0  0  0  0  0  0  0  0  0  0  0
    5.1585  -51.1768  -22.4005 C   0  0  0  0  0  0  0  0  0  0  0  0
    4.2081  -50.5936  -21.6191 C   0  0  0  0  0  0  0  0  0  0  0  0
    6.3970  -48.4259  -24.5794 N   0  0  0  0  0  0  0  0  0  0  0  0
    7.6667  -47.8596  -24.2918 C   0  0  0  0  0  0  0  0  0  0  0  0
    7.8844  -46.4736  -24.8473 C   0  0  0  0  0  0  0  0  0  0  0  0
    7.4032  -46.3374  -26.2960 C   0  0  0  0  0  0  0  0  0  0  0  0
    6.0488  -46.9201  -26.4830 C   0  0  0  0  0  0  0  0  0  0  0  0
    5.8511  -48.2954  -25.9132 C   0  0  0  0  0  0  0  0  0  0  0  0
    8.3599  -46.7185  -27.2383 N   0  0  0  0  0  0  0  0  0  0  0  0
    7.9026  -47.0444  -28.5452 C   0  0  0  0  0  0  0  0  0  0  0  0
    8.1693  -48.5118  -28.8008 C   0  0  0  0  0  0  0  0  0  0  0  0
    9.5016  -48.9047  -28.3834 N   0  0  0  0  0  0  0  0  0  0  0  0
    9.4766  -49.7443  -27.2121 C   0  0  0  0  0  0  0  0  0  0  0  0
   10.3239  -47.7383  -28.1171 C   0  0  0  0  0  0  0  0  0  0  0  0
    9.6644  -47.0549  -26.9030 C   0  0  0  0  0  0  0  0  0  0  0  0
    1.7871  -48.1968  -21.6404 C   0  0  0  0  0  0  0  0  0  0  0  0
    3.0195  -48.6085  -21.0689 O   0  0  0  0  0  0  0  0  0  0  0  0
 44 45  1  0  0  0
 45 25  1  0  0  0
 25 26  2  0  0  0
 26 27  1  0  0  0
 27 28  2  0  0  0
 28 29  1  0  0  0
 29 30  2  0  0  0
 30  1  1  0  0  0
  1  3  1  0  0  0
  3  4  2  0  0  0
  4  5  1  0  0  0
  5  6  2  0  0  0
  6  7  1  0  0  0
  6  8  1  0  0  0
  8 10  1  0  0  0
 10 12  1  0  0  0
 12 13  2  0  0  0
 13 14  1  0  0  0
 14 15  2  0  0  0
 15 16  1  0  0  0
 16 17  2  0  0  0
 17 18  1  0  0  0
 18 19  2  0  0  0
 18 20  2  0  0  0
 18 21  1  0  0  0
 21 22  1  0  0  0
 21 23  1  0  0  0
 21 24  1  0  0  0
  8  9  2  0  0  0
 27 31  1  0  0  0
 31 32  1  0  0  0
 32 33  1  0  0  0
 33 34  1  0  0  0
 34 35  1  0  0  0
 35 36  1  0  0  0
 34 37  1  0  0  0
 37 38  1  0  0  0
 38 39  1  0  0  0
 39 40  1  0  0  0
 40 41  1  0  0  0
 40 42  1  0  0  0
 42 43  1  0  0  0
 30 25  1  0  0  0
  9  3  1  0  0  0
 36 31  1  0  0  0
 43 37  1  0  0  0
 17 12  1  0  0  0
  1  2  1  0  0  0
 10 11  1  0  0  0
M  END
> <minimizedAffinity>
-7.25853

> <CNNscore>
0.0994794220

> <CNNaffinity>
6.8559813499

> <CNN_VS>
0.6820290685

> <CNNaffinity_variance>
0.8855659366

$$$$
[H]c1nc(N([H])c2c([H])c([H])c(N3C([H])([H])C([H])([H])C([H])(N4C([H])([H])C([H])([H])N(C([H])([H])[H])C([H])([H])C4([H])[H])C([H])([H])C3([H])[H])c([H])c2OC([H])([H])[H])nc(N([H])c2c([H])c([H])c([H])c([H])c2S(=O)(=O)C(C([H])([H])[H])(C([H])([H])[H])C([H])([H])[H])c1Cl


 45 49  0  0  0  0  0  0  0  0999 V2000
   -0.6277  -53.3141  -18.8985 N   0  0  0  0  0  0  0  0  0  0  0  0
   -0.6753  -54.4019  -18.9550 H   0  0  0  0  0  0  0  0  0  0  0  0
   -1.2596  -52.8159  -17.7427 C   0  0  0  0  0  0  0  0  0  0  0  0
   -2.5400  -53.0417  -17.4489 N   0  0  0  0  0  0  0  0  0  0  0  0
   -3.1546  -52.5806  -16.3567 C   0  0  0  0  0  0  0  0  0  0  0  0
   -2.4356  -51.8252  -15.4705 C   0  0  0  0  0  0  0  0  0  0  0  0
   -3.1459  -51.1721  -14.0048 Cl  0  0  0  0  0  0  0  0  0  0  0  0
   -1.0753  -51.5528  -15.7285 C   0  0  0  0  0  0  0  0  0  0  0  0
   -0.5918  -52.0703  -16.8467 N   0  0  0  0  0  0  0  0  0  0  0  0
   -0.3566  -50.7638  -14.8032 N   0  0  0  0  0  0  0  0  0  0  0  0
   -0.8335  -49.8796  -14.4851 H   0  0  0  0  0  0  0  0  0  0  0  0
    0.9163  -50.9967  -14.2311 C   0  0  0  0  0  0  0  0  0  0  0  0
    1.3064  -52.1807  -13.6585 C   0  0  0  0  0  0  0  0  0  0  0  0
    2.5471  -52.4134  -13.0822 C   0  0  0  0  0  0  0  0  0  0  0  0
    3.4289  -51.3746  -13.0970 C   0  0  0  0  0  0  0  0  0  0  0  0
    3.1031  -50.1590  -13.6547 C   0  0  0  0  0  0  0  0  0  0  0  0
    1.8750  -49.9571  -14.2156 C   0  0  0  0  0  0  0  0  0  0  0  0
    1.4785  -48.4202  -14.9125 S   0  0  0  0  0  0  0  0  0  0  0  0
    0.3919  -47.7904  -14.0888 O   0  0  0  0  0  0  0  0  0  0  0  0
    1.0315  -48.6250  -16.3348 O   0  0  0  0  0  0  0  0  0  0  0  0
    2.8213  -47.2546  -14.9074 C   0  0  0  0  0  0  0  0  0  0  0  0
    3.4639  -47.0662  -13.5790 C   0  0  0  0  0  0  0  0  0  0  0  0
    3.8761  -47.8744  -15.8484 C   0  0  0  0  0  0  0  0  0  0  0  0
    2.3788  -45.9598  -15.5191 C   0  0  0  0  0  0  0  0  0  0  0  0
   -0.4187  -52.8469  -21.2445 C   0  0  0  0  0  0  0  0  0  0  0  0
    0.1916  -52.2190  -22.3067 C   0  0  0  0  0  0  0  0  0  0  0  0
    1.2609  -51.3692  -22.1625 C   0  0  0  0  0  0  0  0  0  0  0  0
    1.6993  -51.1787  -20.8484 C   0  0  0  0  0  0  0  0  0  0  0  0
    1.0832  -51.8127  -19.7762 C   0  0  0  0  0  0  0  0  0  0  0  0
    0.0230  -52.6525  -19.9338 C   0  0  0  0  0  0  0  0  0  0  0  0
    1.9055  -50.6851  -23.2260 N   0  0  0  0  0  0  0  0  0  0  0  0
    1.7863  -51.1078  -24.5760 C   0  0  0  0  0  0  0  0  0  0  0  0
    3.0771  -51.1090  -25.3574 C   0  0  0  0  0  0  0  0  0  0  0  0
    3.9087  -49.8431  -25.1233 C   0  0  0  0  0  0  0  0  0  0  0  0
    4.0102  -49.5110  -23.6781 C   0  0  0  0  0  0  0  0  0  0  0  0
    2.7153  -49.5261  -22.9176 C   0  0  0  0  0  0  0  0  0  0  0  0
    3.5590  -48.7843  -25.9630 N   0  0  0  0  0  0  0  0  0  0  0  0
    3.8750  -48.9082  -27.3443 C   0  0  0  0  0  0  0  0  0  0  0  0
    4.9026  -47.8569  -27.7032 C   0  0  0  0  0  0  0  0  0  0  0  0
    4.5681  -46.5573  -27.1531 N   0  0  0  0  0  0  0  0  0  0  0  0
    5.4552  -46.1779  -26.0823 C   0  0  0  0  0  0  0  0  0  0  0  0
    3.1997  -46.5388  -26.6685 C   0  0  0  0  0  0  0  0  0  0  0  0
    3.1803  -47.5345  -25.4921 C   0  0  0  0  0  0  0  0  0  0  0  0
   -1.3671  -54.8305  -22.2822 C   0  0  0  0  0  0  0  0  0  0  0  0
   -1.4922  -53.6921  -21.4435 O   0  0  0  0  0  0  0  0  0  0  0  0
 44 45  1  0  0  0
 45 25  1  0  0  0
 25 26  2  0  0  0
 26 27  1  0  0  0
 27 28  2  0  0  0
 28 29  1  0  0  0
 29 30  2  0  0  0
 30  1  1  0  0  0
  1  3  1  0  0  0
  3  4  2  0  0  0
  4  5  1  0  0  0
  5  6  2  0  0  0
  6  7  1  0  0  0
  6  8  1  0  0  0
  8 10  1  0  0  0
 10 12  1  0  0  0
 12 13  2  0  0  0
 13 14  1  0  0  0
 14 15  2  0  0  0
 15 16  1  0  0  0
 16 17  2  0  0  0
 17 18  1  0  0  0
 18 19  2  0  0  0
 18 20  2  0  0  0
 18 21  1  0  0  0
 21 22  1  0  0  0
 21 23  1  0  0  0
 21 24  1  0  0  0
  8  9  2  0  0  0
 27 31  1  0  0  0
 31 32  1  0  0  0
 32 33  1  0  0  0
 33 34  1  0  0  0
 34 35  1  0  0  0
 35 36  1  0  0  0
 34 37  1  0  0  0
 37 38  1  0  0  0
 38 39  1  0  0  0
 39 40  1  0  0  0
 40 41  1  0  0  0
 40 42  1  0  0  0
 42 43  1  0  0  0
 30 25  1  0  0  0
  9  3  1  0  0  0
 36 31  1  0  0  0
 43 37  1  0  0  0
 17 12  1  0  0  0
  1  2  1  0  0  0
 10 11  1  0  0  0
M  END
> <minimizedAffinity>
-6.93204

> <CNNscore>
0.0903292969

> <CNNaffinity>
7.0133910179

> <CNN_VS>
0.6335147023

> <CNNaffinity_variance>
0.0818462819

$$$$
[H]c1nc(N([H])c2c([H])c([H])c(N3C([H])([H])C([H])([H])C([H])(N4C([H])([H])C([H])([H])N(C([H])([H])[H])C([H])([H])C4([H])[H])C([H])([H])C3([H])[H])c([H])c2OC([H])([H])[H])nc(N([H])c2c([H])c([H])c([H])c([H])c2S(=O)(=O)C(C([H])([H])[H])(C([H])([H])[H])C([H])([H])[H])c1Cl


 45 49  0  0  0  0  0  0  0  0999 V2000
    4.6971  -50.4788  -25.5811 N   0  0  0  0  0  0  0  0  0  0  0  0
    5.1415  -50.5602  -26.5734 H   0  0  0  0  0  0  0  0  0  0  0  0
    3.3447  -50.8717  -25.5728 C   0  0  0  0  0  0  0  0  0  0  0  0
    2.6920  -51.2846  -26.6593 N   0  0  0  0  0  0  0  0  0  0  0  0
    1.4117  -51.6638  -26.6697 C   0  0  0  0  0  0  0  0  0  0  0  0
    0.7100  -51.6328  -25.4951 C   0  0  0  0  0  0  0  0  0  0  0  0
   -0.9756  -52.1112  -25.3983 Cl  0  0  0  0  0  0  0  0  0  0  0  0
    1.3484  -51.2044  -24.3119 C   0  0  0  0  0  0  0  0  0  0  0  0
    2.6187  -50.8565  -24.4427 N   0  0  0  0  0  0  0  0  0  0  0  0
    0.6009  -51.1731  -23.1137 N   0  0  0  0  0  0  0  0  0  0  0  0
    0.1013  -50.2685  -22.9073 H   0  0  0  0  0  0  0  0  0  0  0  0
    0.4175  -52.1920  -22.1494 C   0  0  0  0  0  0  0  0  0  0  0  0
   -0.0587  -53.4482  -22.4267 C   0  0  0  0  0  0  0  0  0  0  0  0
   -0.2554  -54.4487  -21.4855 C   0  0  0  0  0  0  0  0  0  0  0  0
    0.0542  -54.1390  -20.1950 C   0  0  0  0  0  0  0  0  0  0  0  0
    0.5362  -52.8976  -19.8463 C   0  0  0  0  0  0  0  0  0  0  0  0
    0.7207  -51.9313  -20.7928 C   0  0  0  0  0  0  0  0  0  0  0  0
    1.3267  -50.3721  -20.3382 S   0  0  0  0  0  0  0  0  0  0  0  0
    1.1148  -50.1911  -18.8623 O   0  0  0  0  0  0  0  0  0  0  0  0
    0.6013  -49.3135  -21.1243 O   0  0  0  0  0  0  0  0  0  0  0  0
    3.0736  -50.1694  -20.6007 C   0  0  0  0  0  0  0  0  0  0  0  0
    3.4309  -49.0394  -21.5001 C   0  0  0  0  0  0  0  0  0  0  0  0
    3.6407  -49.8454  -19.2023 C   0  0  0  0  0  0  0  0  0  0  0  0
    3.6799  -51.4672  -21.0419 C   0  0  0  0  0  0  0  0  0  0  0  0
    5.6649  -48.6482  -24.3655 C   0  0  0  0  0  0  0  0  0  0  0  0
    6.4662  -48.1444  -23.3659 C   0  0  0  0  0  0  0  0  0  0  0  0
    7.1674  -48.9402  -22.4934 C   0  0  0  0  0  0  0  0  0  0  0  0
    7.0155  -50.3168  -22.6870 C   0  0  0  0  0  0  0  0  0  0  0  0
    6.2067  -50.8252  -23.6962 C   0  0  0  0  0  0  0  0  0  0  0  0
    5.5164  -50.0242  -24.5539 C   0  0  0  0  0  0  0  0  0  0  0  0
    7.9866  -48.4639  -21.4367 N   0  0  0  0  0  0  0  0  0  0  0  0
    9.1506  -47.6874  -21.6767 C   0  0  0  0  0  0  0  0  0  0  0  0
   10.3568  -48.0823  -20.8608 C   0  0  0  0  0  0  0  0  0  0  0  0
   10.0144  -48.3379  -19.3889 C   0  0  0  0  0  0  0  0  0  0  0  0
    8.8088  -49.1952  -19.2455 C   0  0  0  0  0  0  0  0  0  0  0  0
    7.6238  -48.7904  -20.0743 C   0  0  0  0  0  0  0  0  0  0  0  0
   10.0309  -47.1831  -18.6050 N   0  0  0  0  0  0  0  0  0  0  0  0
    9.1712  -47.1444  -17.4726 C   0  0  0  0  0  0  0  0  0  0  0  0
    8.1301  -46.0679  -17.6903 C   0  0  0  0  0  0  0  0  0  0  0  0
    8.7129  -44.8400  -18.1962 N   0  0  0  0  0  0  0  0  0  0  0  0
    8.3596  -44.5999  -19.5728 C   0  0  0  0  0  0  0  0  0  0  0  0
   10.1592  -44.8660  -18.0723 C   0  0  0  0  0  0  0  0  0  0  0  0
   10.6196  -45.9948  -19.0156 C   0  0  0  0  0  0  0  0  0  0  0  0
    3.8487  -47.0800  -24.7565 C   0  0  0  0  0  0  0  0  0  0  0  0
    4.9797  -47.8041  -25.2165 O   0  0  0  0  0  0  0  0  0  0  0  0
 44 45  1  0  0  0
 45 25  1  0  0  0
 25 26  2  0  0  0
 26 27  1  0  0  0
 27 28  2  0  0  0
 28 29  1  0  0  0
 29 30  2  0  0  0
 30  1  1  0  0  0
  1  3  1  0  0  0
  3  4  2  0  0  0
  4  5  1  0  0  0
  5  6  2  0  0  0
  6  7  1  0  0  0
  6  8  1  0  0  0
  8 10  1  0  0  0
 10 12  1  0  0  0
 12 13  2  0  0  0
 13 14  1  0  0  0
 14 15  2  0  0  0
 15 16  1  0  0  0
 16 17  2  0  0  0
 17 18  1  0  0  0
 18 19  2  0  0  0
 18 20  2  0  0  0
 18 21  1  0  0  0
 21 22  1  0  0  0
 21 23  1  0  0  0
 21 24  1  0  0  0
  8  9  2  0  0  0
 27 31  1  0  0  0
 31 32  1  0  0  0
 32 33  1  0  0  0
 33 34  1  0  0  0
 34 35  1  0  0  0
 35 36  1  0  0  0
 34 37  1  0  0  0
 37 38  1  0  0  0
 38 39  1  0  0  0
 39 40  1  0  0  0
 40 41  1  0  0  0
 40 42  1  0  0  0
 42 43  1  0  0  0
 30 25  1  0  0  0
  9  3  1  0  0  0
 36 31  1  0  0  0
 43 37  1  0  0  0
 17 12  1  0  0  0
  1  2  1  0  0  0
 10 11  1  0  0  0
M  END
> <minimizedAffinity>
-6.97074

> <CNNscore>
0.0741975307

> <CNNaffinity>
6.6628441811

> <CNN_VS>
0.4943665862

> <CNNaffinity_variance>
0.6865291595

$$$$
[H]c1nc(N([H])c2c([H])c([H])c(N3C([H])([H])C([H])([H])C([H])(N4C([H])([H])C([H])([H])N(C([H])([H])[H])C([H])([H])C4([H])[H])C([H])([H])C3([H])[H])c([H])c2OC([H])([H])[H])nc(N([H])c2c([H])c([H])c([H])c([H])c2S(=O)(=O)C(C([H])([H])[H])(C([H])([H])[H])C([H])([H])[H])c1Cl


 45 49  0  0  0  0  0  0  0  0999 V2000
    3.1425  -47.5792  -21.9884 N   0  0  0  0  0  0  0  0  0  0  0  0
    2.3527  -47.1841  -22.6278 H   0  0  0  0  0  0  0  0  0  0  0  0
    3.5736  -48.8534  -22.4056 C   0  0  0  0  0  0  0  0  0  0  0  0
    4.8458  -49.2494  -22.3650 N   0  0  0  0  0  0  0  0  0  0  0  0
    5.2722  -50.4540  -22.7529 C   0  0  0  0  0  0  0  0  0  0  0  0
    4.3543  -51.3527  -23.2251 C   0  0  0  0  0  0  0  0  0  0  0  0
    4.8080  -52.9615  -23.7590 Cl  0  0  0  0  0  0  0  0  0  0  0  0
    2.9924  -50.9896  -23.2914 C   0  0  0  0  0  0  0  0  0  0  0  0
    2.7071  -49.7659  -22.8757 N   0  0  0  0  0  0  0  0  0  0  0  0
    2.0653  -51.9314  -23.7904 N   0  0  0  0  0  0  0  0  0  0  0  0
    2.1296  -52.1376  -24.8218 H   0  0  0  0  0  0  0  0  0  0  0  0
    1.0624  -52.6496  -23.0975 C   0  0  0  0  0  0  0  0  0  0  0  0
    0.8446  -52.5724  -21.7453 C   0  0  0  0  0  0  0  0  0  0  0  0
   -0.1268  -53.2839  -21.0554 C   0  0  0  0  0  0  0  0  0  0  0  0
   -0.9123  -54.1155  -21.7959 C   0  0  0  0  0  0  0  0  0  0  0  0
   -0.7481  -54.2417  -23.1567 C   0  0  0  0  0  0  0  0  0  0  0  0
    0.2155  -53.5294  -23.8108 C   0  0  0  0  0  0  0  0  0  0  0  0
    0.4114  -53.7002  -25.5248 S   0  0  0  0  0  0  0  0  0  0  0  0
   -0.3544  -54.9121  -25.9728 O   0  0  0  0  0  0  0  0  0  0  0  0
    1.8762  -53.8363  -25.8417 O   0  0  0  0  0  0  0  0  0  0  0  0
   -0.2442  -52.3426  -26.4674 C   0  0  0  0  0  0  0  0  0  0  0  0
    0.6358  -51.1438  -26.5084 C   0  0  0  0  0  0  0  0  0  0  0  0
   -0.3524  -52.8871  -27.9075 C   0  0  0  0  0  0  0  0  0  0  0  0
   -1.6323  -52.0193  -26.0037 C   0  0  0  0  0  0  0  0  0  0  0  0
    3.1128  -47.0835  -19.6392 C   0  0  0  0  0  0  0  0  0  0  0  0
    3.4921  -46.3256  -18.5544 C   0  0  0  0  0  0  0  0  0  0  0  0
    4.3227  -45.2362  -18.6536 C   0  0  0  0  0  0  0  0  0  0  0  0
    4.7660  -44.9390  -19.9461 C   0  0  0  0  0  0  0  0  0  0  0  0
    4.3829  -45.7042  -21.0411 C   0  0  0  0  0  0  0  0  0  0  0  0
    3.5591  -46.7824  -20.9280 C   0  0  0  0  0  0  0  0  0  0  0  0
    4.7557  -44.4412  -17.5605 N   0  0  0  0  0  0  0  0  0  0  0  0
    4.0856  -44.4514  -16.3089 C   0  0  0  0  0  0  0  0  0  0  0  0
    3.8706  -43.0911  -15.6926 C   0  0  0  0  0  0  0  0  0  0  0  0
    5.1162  -42.2022  -15.7777 C   0  0  0  0  0  0  0  0  0  0  0  0
    5.7167  -42.2254  -17.1370 C   0  0  0  0  0  0  0  0  0  0  0  0
    5.9120  -43.5888  -17.7356 C   0  0  0  0  0  0  0  0  0  0  0  0
    6.0077  -42.3907  -14.7203 N   0  0  0  0  0  0  0  0  0  0  0  0
    7.3925  -42.4741  -15.0344 C   0  0  0  0  0  0  0  0  0  0  0  0
    7.8833  -43.8656  -14.6983 C   0  0  0  0  0  0  0  0  0  0  0  0
    7.4088  -44.3132  -13.4030 N   0  0  0  0  0  0  0  0  0  0  0  0
    6.4200  -45.3555  -13.5190 C   0  0  0  0  0  0  0  0  0  0  0  0
    6.8494  -43.2066  -12.6478 C   0  0  0  0  0  0  0  0  0  0  0  0
    5.6059  -42.7679  -13.4462 C   0  0  0  0  0  0  0  0  0  0  0  0
    2.3003  -48.9354  -18.2895 C   0  0  0  0  0  0  0  0  0  0  0  0
    2.2757  -48.1706  -19.4852 O   0  0  0  0  0  0  0  0  0  0  0  0
 44 45  1  0  0  0
 45 25  1  0  0  0
 25 26  2  0  0  0
 26 27  1  0  0  0
 27 28  2  0  0  0
 28 29  1  0  0  0
 29 30  2  0  0  0
 30  1  1  0  0  0
  1  3  1  0  0  0
  3  4  2  0  0  0
  4  5  1  0  0  0
  5  6  2  0  0  0
  6  7  1  0  0  0
  6  8  1  0  0  0
  8 10  1  0  0  0
 10 12  1  0  0  0
 12 13  2  0  0  0
 13 14  1  0  0  0
 14 15  2  0  0  0
 15 16  1  0  0  0
 16 17  2  0  0  0
 17 18  1  0  0  0
 18 19  2  0  0  0
 18 20  2  0  0  0
 18 21  1  0  0  0
 21 22  1  0  0  0
 21 23  1  0  0  0
 21 24  1  0  0  0
  8  9  2  0  0  0
 27 31  1  0  0  0
 31 32  1  0  0  0
 32 33  1  0  0  0
 33 34  1  0  0  0
 34 35  1  0  0  0
 35 36  1  0  0  0
 34 37  1  0  0  0
 37 38  1  0  0  0
 38 39  1  0  0  0
 39 40  1  0  0  0
 40 41  1  0  0  0
 40 42  1  0  0  0
 42 43  1  0  0  0
 30 25  1  0  0  0
  9  3  1  0  0  0
 36 31  1  0  0  0
 43 37  1  0  0  0
 17 12  1  0  0  0
  1  2  1  0  0  0
 10 11  1  0  0  0
M  END
> <minimizedAffinity>
-6.57705

> <CNNscore>
0.0722073689

> <CNNaffinity>
6.3414430618

> <CNN_VS>
0.4578989148

> <CNNaffinity_variance>
0.3174867034

$$$$
[H]c1nc(N([H])c2c([H])c([H])c(N3C([H])([H])C([H])([H])C([H])(N4C([H])([H])C([H])([H])N(C([H])([H])[H])C([H])([H])C4([H])[H])C([H])([H])C3([H])[H])c([H])c2OC([H])([H])[H])nc(N([H])c2c([H])c([H])c([H])c([H])c2S(=O)(=O)C(C([H])([H])[H])(C([H])([H])[H])C([H])([H])[H])c1Cl


 45 49  0  0  0  0  0  0  0  0999 V2000
    3.3379  -47.7590  -21.8043 N   0  0  0  0  0  0  0  0  0  0  0  0
    2.7495  -46.9882  -22.3029 H   0  0  0  0  0  0  0  0  0  0  0  0
    3.4858  -48.9105  -22.6015 C   0  0  0  0  0  0  0  0  0  0  0  0
    4.6681  -49.4352  -22.9240 N   0  0  0  0  0  0  0  0  0  0  0  0
    4.8273  -50.5275  -23.6753 C   0  0  0  0  0  0  0  0  0  0  0  0
    3.7126  -51.1621  -24.1528 C   0  0  0  0  0  0  0  0  0  0  0  0
    3.8100  -52.6046  -25.1472 Cl  0  0  0  0  0  0  0  0  0  0  0  0
    2.4335  -50.6525  -23.8441 C   0  0  0  0  0  0  0  0  0  0  0  0
    2.4192  -49.5642  -23.0909 N   0  0  0  0  0  0  0  0  0  0  0  0
    1.2985  -51.3200  -24.3555 N   0  0  0  0  0  0  0  0  0  0  0  0
    0.9524  -50.9858  -25.2931 H   0  0  0  0  0  0  0  0  0  0  0  0
    0.5604  -52.3865  -23.7902 C   0  0  0  0  0  0  0  0  0  0  0  0
    0.7729  -52.9000  -22.5361 C   0  0  0  0  0  0  0  0  0  0  0  0
    0.0640  -53.9550  -21.9792 C   0  0  0  0  0  0  0  0  0  0  0  0
   -0.9121  -54.5075  -22.7532 C   0  0  0  0  0  0  0  0  0  0  0  0
   -1.1782  -54.0418  -24.0209 C   0  0  0  0  0  0  0  0  0  0  0  0
   -0.4655  -53.0018  -24.5445 C   0  0  0  0  0  0  0  0  0  0  0  0
   -0.8109  -52.4275  -26.1433 S   0  0  0  0  0  0  0  0  0  0  0  0
   -0.4604  -50.9686  -26.2108 O   0  0  0  0  0  0  0  0  0  0  0  0
   -2.2690  -52.6495  -26.4419 O   0  0  0  0  0  0  0  0  0  0  0  0
    0.1498  -53.2114  -27.4177 C   0  0  0  0  0  0  0  0  0  0  0  0
    1.5533  -52.7271  -27.5122 C   0  0  0  0  0  0  0  0  0  0  0  0
    0.1996  -54.6982  -27.0064 C   0  0  0  0  0  0  0  0  0  0  0  0
   -0.5738  -53.1315  -28.7278 C   0  0  0  0  0  0  0  0  0  0  0  0
    3.1088  -47.9444  -19.4214 C   0  0  0  0  0  0  0  0  0  0  0  0
    3.5337  -47.6847  -18.1379 C   0  0  0  0  0  0  0  0  0  0  0  0
    4.6612  -46.9536  -17.8542 C   0  0  0  0  0  0  0  0  0  0  0  0
    5.3622  -46.4807  -18.9679 C   0  0  0  0  0  0  0  0  0  0  0  0
    4.9332  -46.7429  -20.2634 C   0  0  0  0  0  0  0  0  0  0  0  0
    3.8133  -47.4700  -20.5302 C   0  0  0  0  0  0  0  0  0  0  0  0
    5.1466  -46.6807  -16.5487 N   0  0  0  0  0  0  0  0  0  0  0  0
    4.4146  -47.0313  -15.3838 C   0  0  0  0  0  0  0  0  0  0  0  0
    4.3702  -45.9652  -14.3169 C   0  0  0  0  0  0  0  0  0  0  0  0
    5.7366  -45.3136  -14.0780 C   0  0  0  0  0  0  0  0  0  0  0  0
    6.4009  -44.9443  -15.3553 C   0  0  0  0  0  0  0  0  0  0  0  0
    6.4244  -46.0163  -16.4067 C   0  0  0  0  0  0  0  0  0  0  0  0
    6.5309  -46.0058  -13.1624 N   0  0  0  0  0  0  0  0  0  0  0  0
    7.2098  -45.2434  -12.1720 C   0  0  0  0  0  0  0  0  0  0  0  0
    8.7003  -45.3642  -12.4038 C   0  0  0  0  0  0  0  0  0  0  0  0
    9.1028  -46.7333  -12.6622 N   0  0  0  0  0  0  0  0  0  0  0  0
    9.4944  -46.9328  -14.0349 C   0  0  0  0  0  0  0  0  0  0  0  0
    8.0323  -47.6568  -12.3322 C   0  0  0  0  0  0  0  0  0  0  0  0
    6.9042  -47.3322  -13.3313 C   0  0  0  0  0  0  0  0  0  0  0  0
    1.3249  -49.3706  -18.5880 C   0  0  0  0  0  0  0  0  0  0  0  0
    1.9676  -48.6862  -19.6528 O   0  0  0  0  0  0  0  0  0  0  0  0
 44 45  1  0  0  0
 45 25  1  0  0  0
 25 26  2  0  0  0
 26 27  1  0  0  0
 27 28  2  0  0  0
 28 29  1  0  0  0
 29 30  2  0  0  0
 30  1  1  0  0  0
  1  3  1  0  0  0
  3  4  2  0  0  0
  4  5  1  0  0  0
  5  6  2  0  0  0
  6  7  1  0  0  0
  6  8  1  0  0  0
  8 10  1  0  0  0
 10 12  1  0  0  0
 12 13  2  0  0  0
 13 14  1  0  0  0
 14 15  2  0  0  0
 15 16  1  0  0  0
 16 17  2  0  0  0
 17 18  1  0  0  0
 18 19  2  0  0  0
 18 20  2  0  0  0
 18 21  1  0  0  0
 21 22  1  0  0  0
 21 23  1  0  0  0
 21 24  1  0  0  0
  8  9  2  0  0  0
 27 31  1  0  0  0
 31 32  1  0  0  0
 32 33  1  0  0  0
 33 34  1  0  0  0
 34 35  1  0  0  0
 35 36  1  0  0  0
 34 37  1  0  0  0
 37 38  1  0  0  0
 38 39  1  0  0  0
 39 40  1  0  0  0
 40 41  1  0  0  0
 40 42  1  0  0  0
 42 43  1  0  0  0
 30 25  1  0  0  0
  9  3  1  0  0  0
 36 31  1  0  0  0
 43 37  1  0  0  0
 17 12  1  0  0  0
  1  2  1  0  0  0
 10 11  1  0  0  0
M  END
> <minimizedAffinity>
-6.86817

> <CNNscore>
0.0603003688

> <CNNaffinity>
6.2549924850

> <CNN_VS>
0.3771783412

> <CNNaffinity_variance>
0.1344181150

$$$$
[H]c1nc(N([H])c2c([H])c([H])c(N3C([H])([H])C([H])([H])C([H])(N4C([H])([H])C([H])([H])N(C([H])([H])[H])C([H])([H])C4([H])[H])C([H])([H])C3([H])[H])c([H])c2OC([H])([H])[H])nc(N([H])c2c([H])c([H])c([H])c([H])c2S(=O)(=O)C(C([H])([H])[H])(C([H])([H])[H])C([H])([H])[H])c1Cl


 45 49  0  0  0  0  0  0  0  0999 V2000
    1.6552  -52.3988  -20.1001 N   0  0  0  0  0  0  0  0  0  0  0  0
    2.3029  -53.2705  -20.0019 H   0  0  0  0  0  0  0  0  0  0  0  0
    0.5006  -52.5046  -19.3007 C   0  0  0  0  0  0  0  0  0  0  0  0
   -0.6166  -53.1132  -19.6988 N   0  0  0  0  0  0  0  0  0  0  0  0
   -1.7190  -53.2260  -18.9538 C   0  0  0  0  0  0  0  0  0  0  0  0
   -1.7172  -52.6869  -17.6959 C   0  0  0  0  0  0  0  0  0  0  0  0
   -3.1119  -52.7804  -16.6350 Cl  0  0  0  0  0  0  0  0  0  0  0  0
   -0.5626  -52.0301  -17.2198 C   0  0  0  0  0  0  0  0  0  0  0  0
    0.4587  -51.9899  -18.0607 N   0  0  0  0  0  0  0  0  0  0  0  0
   -0.5881  -51.4743  -15.9213 N   0  0  0  0  0  0  0  0  0  0  0  0
   -0.3124  -52.1233  -15.1382 H   0  0  0  0  0  0  0  0  0  0  0  0
   -0.9236  -50.1599  -15.5197 C   0  0  0  0  0  0  0  0  0  0  0  0
   -2.1819  -49.6196  -15.6007 C   0  0  0  0  0  0  0  0  0  0  0  0
   -2.5172  -48.3271  -15.2229 C   0  0  0  0  0  0  0  0  0  0  0  0
   -1.5055  -47.5537  -14.7375 C   0  0  0  0  0  0  0  0  0  0  0  0
   -0.2193  -48.0321  -14.6294 C   0  0  0  0  0  0  0  0  0  0  0  0
    0.0830  -49.3083  -15.0082 C   0  0  0  0  0  0  0  0  0  0  0  0
    1.7078  -49.8961  -14.8678 S   0  0  0  0  0  0  0  0  0  0  0  0
    1.6668  -51.3958  -14.7971 O   0  0  0  0  0  0  0  0  0  0  0  0
    2.3378  -49.3117  -13.6324 O   0  0  0  0  0  0  0  0  0  0  0  0
    2.7408  -49.5094  -16.2625 C   0  0  0  0  0  0  0  0  0  0  0  0
    3.4383  -50.6836  -16.8525 C   0  0  0  0  0  0  0  0  0  0  0  0
    1.7656  -48.9662  -17.3284 C   0  0  0  0  0  0  0  0  0  0  0  0
    3.6845  -48.3997  -15.9096 C   0  0  0  0  0  0  0  0  0  0  0  0
    1.8630  -51.5348  -22.3307 C   0  0  0  0  0  0  0  0  0  0  0  0
    2.2622  -50.5668  -23.2244 C   0  0  0  0  0  0  0  0  0  0  0  0
    2.8881  -49.4054  -22.8428 C   0  0  0  0  0  0  0  0  0  0  0  0
    3.0991  -49.2648  -21.4676 C   0  0  0  0  0  0  0  0  0  0  0  0
    2.6960  -50.2421  -20.5655 C   0  0  0  0  0  0  0  0  0  0  0  0
    2.0757  -51.3888  -20.9580 C   0  0  0  0  0  0  0  0  0  0  0  0
    3.2965  -48.3729  -23.7269 N   0  0  0  0  0  0  0  0  0  0  0  0
    2.9242  -48.3628  -25.0969 C   0  0  0  0  0  0  0  0  0  0  0  0
    4.0365  -48.0129  -26.0546 C   0  0  0  0  0  0  0  0  0  0  0  0
    4.8697  -46.8179  -25.5785 C   0  0  0  0  0  0  0  0  0  0  0  0
    5.2452  -46.9450  -24.1461 C   0  0  0  0  0  0  0  0  0  0  0  0
    4.1253  -47.3041  -23.2123 C   0  0  0  0  0  0  0  0  0  0  0  0
    4.3390  -45.5835  -25.9565 N   0  0  0  0  0  0  0  0  0  0  0  0
    3.3329  -45.5800  -26.9619 C   0  0  0  0  0  0  0  0  0  0  0  0
    3.8707  -44.8682  -28.1841 C   0  0  0  0  0  0  0  0  0  0  0  0
    4.5524  -43.6349  -27.8410 N   0  0  0  0  0  0  0  0  0  0  0  0
    5.9780  -43.7338  -28.0289 C   0  0  0  0  0  0  0  0  0  0  0  0
    4.2771  -43.2585  -26.4662 C   0  0  0  0  0  0  0  0  0  0  0  0
    4.9191  -44.3700  -25.6128 C   0  0  0  0  0  0  0  0  0  0  0  0
   -0.0778  -52.6316  -23.3010 C   0  0  0  0  0  0  0  0  0  0  0  0
    1.2362  -52.6852  -22.7664 O   0  0  0  0  0  0  0  0  0  0  0  0
 44 45  1  0  0  0
 45 25  1  0  0  0
 25 26  2  0  0  0
 26 27  1  0  0  0
 27 28  2  0  0  0
 28 29  1  0  0  0
 29 30  2  0  0  0
 30  1  1  0  0  0
  1  3  1  0  0  0
  3  4  2  0  0  0
  4  5  1  0  0  0
  5  6  2  0  0  0
  6  7  1  0  0  0
  6  8  1  0  0  0
  8 10  1  0  0  0
 10 12  1  0  0  0
 12 13  2  0  0  0
 13 14  1  0  0  0
 14 15  2  0  0  0
 15 16  1  0  0  0
 16 17  2  0  0  0
 17 18  1  0  0  0
 18 19  2  0  0  0
 18 20  2  0  0  0
 18 21  1  0  0  0
 21 22  1  0  0  0
 21 23  1  0  0  0
 21 24  1  0  0  0
  8  9  2  0  0  0
 27 31  1  0  0  0
 31 32  1  0  0  0
 32 33  1  0  0  0
 33 34  1  0  0  0
 34 35  1  0  0  0
 35 36  1  0  0  0
 34 37  1  0  0  0
 37 38  1  0  0  0
 38 39  1  0  0  0
 39 40  1  0  0  0
 40 41  1  0  0  0
 40 42  1  0  0  0
 42 43  1  0  0  0
 30 25  1  0  0  0
  9  3  1  0  0  0
 36 31  1  0  0  0
 43 37  1  0  0  0
 17 12  1  0  0  0
  1  2  1  0  0  0
 10 11  1  0  0  0
M  END
> <minimizedAffinity>
-6.07976

> <CNNscore>
0.0359463133

> <CNNaffinity>
6.6468629837

> <CNN_VS>
0.2389302254

> <CNNaffinity_variance>
0.0860492960

$$$$
[H]c1nc(N([H])c2c([H])c([H])c(N3C([H])([H])C([H])([H])C([H])(N4C([H])([H])C([H])([H])N(C([H])([H])[H])C([H])([H])C4([H])[H])C([H])([H])C3([H])[H])c([H])c2OC([H])([H])[H])nc(N([H])c2c([H])c([H])c([H])c([H])c2S(=O)(=O)C(C([H])([H])[H])(C([H])([H])[H])C([H])([H])[H])c1Cl


 45 49  0  0  0  0  0  0  0  0999 V2000
    2.9297  -48.4251  -24.8325 N   0  0  0  0  0  0  0  0  0  0  0  0
    1.8667  -48.5142  -24.6068 H   0  0  0  0  0  0  0  0  0  0  0  0
    3.7337  -48.6880  -23.7066 C   0  0  0  0  0  0  0  0  0  0  0  0
    4.8936  -48.0744  -23.4714 N   0  0  0  0  0  0  0  0  0  0  0  0
    5.6670  -48.3082  -22.4083 C   0  0  0  0  0  0  0  0  0  0  0  0
    5.2551  -49.2358  -21.4901 C   0  0  0  0  0  0  0  0  0  0  0  0
    6.1949  -49.6174  -20.0582 Cl  0  0  0  0  0  0  0  0  0  0  0  0
    4.0353  -49.9177  -21.6859 C   0  0  0  0  0  0  0  0  0  0  0  0
    3.3679  -49.5902  -22.7810 N   0  0  0  0  0  0  0  0  0  0  0  0
    3.6357  -50.8766  -20.7287 N   0  0  0  0  0  0  0  0  0  0  0  0
    4.4041  -51.2712  -20.1251 H   0  0  0  0  0  0  0  0  0  0  0  0
    2.3418  -51.3795  -20.4558 C   0  0  0  0  0  0  0  0  0  0  0  0
    1.5612  -52.0501  -21.3628 C   0  0  0  0  0  0  0  0  0  0  0  0
    0.2857  -52.5340  -21.1085 C   0  0  0  0  0  0  0  0  0  0  0  0
   -0.2093  -52.3159  -19.8578 C   0  0  0  0  0  0  0  0  0  0  0  0
    0.5199  -51.6496  -18.8990 C   0  0  0  0  0  0  0  0  0  0  0  0
    1.7731  -51.1842  -19.1758 C   0  0  0  0  0  0  0  0  0  0  0  0
    2.6786  -50.3454  -17.9586 S   0  0  0  0  0  0  0  0  0  0  0  0
    3.0927  -49.0107  -18.5089 O   0  0  0  0  0  0  0  0  0  0  0  0
    3.8779  -51.1719  -17.5800 O   0  0  0  0  0  0  0  0  0  0  0  0
    1.7522  -49.9898  -16.4831 C   0  0  0  0  0  0  0  0  0  0  0  0
    1.5094  -51.1715  -15.6126 C   0  0  0  0  0  0  0  0  0  0  0  0
    2.6433  -49.0079  -15.6931 C   0  0  0  0  0  0  0  0  0  0  0  0
    0.4873  -49.2662  -16.8337 C   0  0  0  0  0  0  0  0  0  0  0  0
    2.9936  -46.7980  -26.5971 C   0  0  0  0  0  0  0  0  0  0  0  0
    3.3121  -46.4107  -27.8791 C   0  0  0  0  0  0  0  0  0  0  0  0
    3.9203  -47.2441  -28.7856 C   0  0  0  0  0  0  0  0  0  0  0  0
    4.1999  -48.5322  -28.3185 C   0  0  0  0  0  0  0  0  0  0  0  0
    3.8782  -48.9230  -27.0243 C   0  0  0  0  0  0  0  0  0  0  0  0
    3.2758  -48.0857  -26.1356 C   0  0  0  0  0  0  0  0  0  0  0  0
    4.2853  -46.8800  -30.1080 N   0  0  0  0  0  0  0  0  0  0  0  0
    3.3166  -46.6214  -31.1132 C   0  0  0  0  0  0  0  0  0  0  0  0
    3.6161  -47.2381  -32.4573 C   0  0  0  0  0  0  0  0  0  0  0  0
    5.0794  -47.0574  -32.8755 C   0  0  0  0  0  0  0  0  0  0  0  0
    6.0133  -47.3950  -31.7697 C   0  0  0  0  0  0  0  0  0  0  0  0
    5.6906  -46.7791  -30.4386 C   0  0  0  0  0  0  0  0  0  0  0  0
    5.3267  -45.8479  -33.5268 N   0  0  0  0  0  0  0  0  0  0  0  0
    6.6618  -45.3574  -33.5188 C   0  0  0  0  0  0  0  0  0  0  0  0
    6.7001  -44.0674  -32.7287 C   0  0  0  0  0  0  0  0  0  0  0  0
    5.6075  -43.1805  -33.0795 N   0  0  0  0  0  0  0  0  0  0  0  0
    4.6312  -43.0801  -32.0239 C   0  0  0  0  0  0  0  0  0  0  0  0
    4.9515  -43.6258  -34.2956 C   0  0  0  0  0  0  0  0  0  0  0  0
    4.3188  -44.9837  -33.9324 C   0  0  0  0  0  0  0  0  0  0  0  0
    3.1070  -44.8304  -25.1734 C   0  0  0  0  0  0  0  0  0  0  0  0
    2.3828  -45.9204  -25.7236 O   0  0  0  0  0  0  0  0  0  0  0  0
 44 45  1  0  0  0
 45 25  1  0  0  0
 25 26  2  0  0  0
 26 27  1  0  0  0
 27 28  2  0  0  0
 28 29  1  0  0  0
 29 30  2  0  0  0
 30  1  1  0  0  0
  1  3  1  0  0  0
  3  4  2  0  0  0
  4  5  1  0  0  0
  5  6  2  0  0  0
  6  7  1  0  0  0
  6  8  1  0  0  0
  8 10  1  0  0  0
 10 12  1  0  0  0
 12 13  2  0  0  0
 13 14  1  0  0  0
 14 15  2  0  0  0
 15 16  1  0  0  0
 16 17  2  0  0  0
 17 18  1  0  0  0
 18 19  2  0  0  0
 18 20  2  0  0  0
 18 21  1  0  0  0
 21 22  1  0  0  0
 21 23  1  0  0  0
 21 24  1  0  0  0
  8  9  2  0  0  0
 27 31  1  0  0  0
 31 32  1  0  0  0
 32 33  1  0  0  0
 33 34  1  0  0  0
 34 35  1  0  0  0
 35 36  1  0  0  0
 34 37  1  0  0  0
 37 38  1  0  0  0
 38 39  1  0  0  0
 39 40  1  0  0  0
 40 41  1  0  0  0
 40 42  1  0  0  0
 42 43  1  0  0  0
 30 25  1  0  0  0
  9  3  1  0  0  0
 36 31  1  0  0  0
 43 37  1  0  0  0
 17 12  1  0  0  0
  1  2  1  0  0  0
 10 11  1  0  0  0
M  END
> <minimizedAffinity>
-6.44422

> <CNNscore>
0.0357886516

> <CNNaffinity>
6.1144137383

> <CNN_VS>
0.2188266218

> <CNNaffinity_variance>
0.1010682806

$$$$
[H]c1nc(N([H])c2c([H])c([H])c(N3C([H])([H])C([H])([H])C([H])(N4C([H])([H])C([H])([H])N(C([H])([H])[H])C([H])([H])C4([H])[H])C([H])([H])C3([H])[H])c([H])c2OC([H])([H])[H])nc(N([H])c2c([H])c([H])c([H])c([H])c2S(=O)(=O)C(C([H])([H])[H])(C([H])([H])[H])C([H])([H])[H])c1Cl


 45 49  0  0  0  0  0  0  0  0999 V2000
    2.6419  -48.9667  -22.5836 N   0  0  0  0  0  0  0  0  0  0  0  0
    2.8515  -49.8585  -23.1748 H   0  0  0  0  0  0  0  0  0  0  0  0
    2.9462  -47.7835  -23.2842 C   0  0  0  0  0  0  0  0  0  0  0  0
    2.6124  -46.5670  -22.8535 N   0  0  0  0  0  0  0  0  0  0  0  0
    2.8954  -45.4347  -23.5024 C   0  0  0  0  0  0  0  0  0  0  0  0
    3.5729  -45.5117  -24.6890 C   0  0  0  0  0  0  0  0  0  0  0  0
    3.9954  -44.0857  -25.6203 Cl  0  0  0  0  0  0  0  0  0  0  0  0
    3.9526  -46.7729  -25.1952 C   0  0  0  0  0  0  0  0  0  0  0  0
    3.6093  -47.8130  -24.4521 N   0  0  0  0  0  0  0  0  0  0  0  0
    4.6437  -46.8271  -26.4260 N   0  0  0  0  0  0  0  0  0  0  0  0
    4.0986  -46.5176  -27.2731 H   0  0  0  0  0  0  0  0  0  0  0  0
    5.9747  -47.2309  -26.6851 C   0  0  0  0  0  0  0  0  0  0  0  0
    7.0361  -46.9917  -25.8497 C   0  0  0  0  0  0  0  0  0  0  0  0
    8.3469  -47.3711  -26.1023 C   0  0  0  0  0  0  0  0  0  0  0  0
    8.5743  -48.0296  -27.2735 C   0  0  0  0  0  0  0  0  0  0  0  0
    7.5555  -48.3022  -28.1580 C   0  0  0  0  0  0  0  0  0  0  0  0
    6.2744  -47.9178  -27.8844 C   0  0  0  0  0  0  0  0  0  0  0  0
    5.0020  -48.2667  -29.0089 S   0  0  0  0  0  0  0  0  0  0  0  0
    3.8213  -48.7918  -28.2434 O   0  0  0  0  0  0  0  0  0  0  0  0
    5.4929  -49.2775  -30.0098 O   0  0  0  0  0  0  0  0  0  0  0  0
    4.4064  -46.8434  -29.8929 C   0  0  0  0  0  0  0  0  0  0  0  0
    5.3571  -45.6996  -29.9241 C   0  0  0  0  0  0  0  0  0  0  0  0
    4.2267  -47.3360  -31.3445 C   0  0  0  0  0  0  0  0  0  0  0  0
    3.0536  -46.4508  -29.3808 C   0  0  0  0  0  0  0  0  0  0  0  0
    1.1827  -50.1611  -21.0972 C   0  0  0  0  0  0  0  0  0  0  0  0
    0.6436  -50.3912  -19.8516 C   0  0  0  0  0  0  0  0  0  0  0  0
    0.9916  -49.6668  -18.7378 C   0  0  0  0  0  0  0  0  0  0  0  0
    1.9425  -48.6638  -18.9509 C   0  0  0  0  0  0  0  0  0  0  0  0
    2.4865  -48.4317  -20.2084 C   0  0  0  0  0  0  0  0  0  0  0  0
    2.1326  -49.1583  -21.3042 C   0  0  0  0  0  0  0  0  0  0  0  0
    0.4778  -49.8841  -17.4327 N   0  0  0  0  0  0  0  0  0  0  0  0
    0.8019  -49.0327  -16.3438 C   0  0  0  0  0  0  0  0  0  0  0  0
    1.1364  -49.7467  -15.0573 C   0  0  0  0  0  0  0  0  0  0  0  0
    0.1630  -50.8892  -14.7472 C   0  0  0  0  0  0  0  0  0  0  0  0
   -0.0756  -51.7468  -15.9374 C   0  0  0  0  0  0  0  0  0  0  0  0
   -0.3965  -51.0153  -17.2090 C   0  0  0  0  0  0  0  0  0  0  0  0
   -0.9805  -50.4754  -14.0620 N   0  0  0  0  0  0  0  0  0  0  0  0
   -2.1738  -51.2234  -14.2616 C   0  0  0  0  0  0  0  0  0  0  0  0
   -3.1905  -50.3402  -14.9517 C   0  0  0  0  0  0  0  0  0  0  0  0
   -3.2578  -49.0190  -14.3572 N   0  0  0  0  0  0  0  0  0  0  0  0
   -2.7033  -48.0074  -15.2213 C   0  0  0  0  0  0  0  0  0  0  0  0
   -2.5635  -48.9907  -13.0825 C   0  0  0  0  0  0  0  0  0  0  0  0
   -1.0831  -49.2438  -13.4297 C   0  0  0  0  0  0  0  0  0  0  0  0
    0.6340  -52.3238  -22.0631 C   0  0  0  0  0  0  0  0  0  0  0  0
    0.7990  -50.9192  -22.1855 O   0  0  0  0  0  0  0  0  0  0  0  0
 44 45  1  0  0  0
 45 25  1  0  0  0
 25 26  2  0  0  0
 26 27  1  0  0  0
 27 28  2  0  0  0
 28 29  1  0  0  0
 29 30  2  0  0  0
 30  1  1  0  0  0
  1  3  1  0  0  0
  3  4  2  0  0  0
  4  5  1  0  0  0
  5  6  2  0  0  0
  6  7  1  0  0  0
  6  8  1  0  0  0
  8 10  1  0  0  0
 10 12  1  0  0  0
 12 13  2  0  0  0
 13 14  1  0  0  0
 14 15  2  0  0  0
 15 16  1  0  0  0
 16 17  2  0  0  0
 17 18  1  0  0  0
 18 19  2  0  0  0
 18 20  2  0  0  0
 18 21  1  0  0  0
 21 22  1  0  0  0
 21 23  1  0  0  0
 21 24  1  0  0  0
  8  9  2  0  0  0
 27 31  1  0  0  0
 31 32  1  0  0  0
 32 33  1  0  0  0
 33 34  1  0  0  0
 34 35  1  0  0  0
 35 36  1  0  0  0
 34 37  1  0  0  0
 37 38  1  0  0  0
 38 39  1  0  0  0
 39 40  1  0  0  0
 40 41  1  0  0  0
 40 42  1  0  0  0
 42 43  1  0  0  0
 30 25  1  0  0  0
  9  3  1  0  0  0
 36 31  1  0  0  0
 43 37  1  0  0  0
 17 12  1  0  0  0
  1  2  1  0  0  0
 10 11  1  0  0  0
M  END
> <minimizedAffinity>
-6.24225

> <CNNscore>
0.0347962901

> <CNNaffinity>
6.2155027390

> <CNN_VS>
0.2162764370

> <CNNaffinity_variance>
0.0718307346

$$$$
[H]c1nc(N([H])c2c([H])c([H])c(N3C([H])([H])C([H])([H])C([H])([H])[C@]([H])(N4C([H])([H])C([H])([H])C([H])([H])C4([H])[H])C3([H])[H])c([H])c2OC([H])([H])[H])nc(N([H])c2c([H])c([H])c([H])c([H])c2S(=O)(=O)C([H])(C([H])([H])[H])C([H])([H])[H])c1Cl


 42 46  0  0  0  0  0  0  0  0999 V2000
    0.7904  -53.3029  -23.6299 N   0  0  0  0  0  0  0  0  0  0  0  0
    0.5963  -54.1109  -24.3143 H   0  0  0  0  0  0  0  0  0  0  0  0
    0.1103  -53.3522  -22.3970 C   0  0  0  0  0  0  0  0  0  0  0  0
   -1.1234  -53.7729  -22.2009 N   0  0  0  0  0  0  0  0  0  0  0  0
   -1.7437  -53.8042  -21.0125 C   0  0  0  0  0  0  0  0  0  0  0  0
   -1.0772  -53.3734  -19.8861 C   0  0  0  0  0  0  0  0  0  0  0  0
   -1.7913  -53.3747  -18.3031 Cl  0  0  0  0  0  0  0  0  0  0  0  0
    0.2417  -52.9158  -20.0472 C   0  0  0  0  0  0  0  0  0  0  0  0
    0.7673  -52.9264  -21.2786 N   0  0  0  0  0  0  0  0  0  0  0  0
    0.9186  -52.4617  -18.9018 N   0  0  0  0  0  0  0  0  0  0  0  0
    1.7230  -53.0927  -18.5761 H   0  0  0  0  0  0  0  0  0  0  0  0
    0.7407  -51.3181  -18.1144 C   0  0  0  0  0  0  0  0  0  0  0  0
   -0.2446  -51.2206  -17.1790 C   0  0  0  0  0  0  0  0  0  0  0  0
   -0.4805  -50.0821  -16.3991 C   0  0  0  0  0  0  0  0  0  0  0  0
    0.3514  -49.0125  -16.6149 C   0  0  0  0  0  0  0  0  0  0  0  0
    1.3501  -49.0898  -17.5519 C   0  0  0  0  0  0  0  0  0  0  0  0
    1.5760  -50.2136  -18.3146 C   0  0  0  0  0  0  0  0  0  0  0  0
    2.8993  -50.2241  -19.4601 S   0  0  0  0  0  0  0  0  0  0  0  0
    4.0405  -49.3551  -19.0524 O   0  0  0  0  0  0  0  0  0  0  0  0
    3.4660  -51.6413  -19.5018 O   0  0  0  0  0  0  0  0  0  0  0  0
    2.4210  -49.8365  -21.0997 C   0  0  0  0  0  0  0  0  0  0  0  0
    3.3066  -48.7466  -21.6734 C   0  0  0  0  0  0  0  0  0  0  0  0
    0.9749  -49.3255  -21.0249 C   0  0  0  0  0  0  0  0  0  0  0  0
    1.2453  -51.3585  -24.9985 C   0  0  0  0  0  0  0  0  0  0  0  0
    2.0787  -50.3883  -25.4862 C   0  0  0  0  0  0  0  0  0  0  0  0
    3.4048  -50.3065  -25.1227 C   0  0  0  0  0  0  0  0  0  0  0  0
    3.8526  -51.2556  -24.2384 C   0  0  0  0  0  0  0  0  0  0  0  0
    3.0119  -52.2539  -23.7307 C   0  0  0  0  0  0  0  0  0  0  0  0
    1.6943  -52.3356  -24.0918 C   0  0  0  0  0  0  0  0  0  0  0  0
    4.3065  -49.3310  -25.6156 N   0  0  0  0  0  0  0  0  0  0  0  0
    5.6972  -49.2917  -25.1779 C   0  0  0  0  0  0  0  0  0  0  0  0
    6.1221  -47.8896  -24.7844 C   0  0  0  0  0  0  0  0  0  0  0  0
    4.9652  -46.9114  -24.8184 C   0  0  0  0  0  0  0  0  0  0  0  0
    4.2829  -46.9233  -26.1757 C   0  0  0  0  0  0  0  0  0  0  0  0
    3.9316  -48.3260  -26.5941 C   0  0  0  0  0  0  0  0  0  0  0  0
    3.0486  -46.1723  -26.0432 N   0  0  0  0  0  0  0  0  0  0  0  0
    3.3324  -44.7410  -25.8914 C   0  0  0  0  0  0  0  0  0  0  0  0
    3.9758  -44.3466  -27.1806 C   0  0  0  0  0  0  0  0  0  0  0  0
    3.2387  -45.2217  -28.1910 C   0  0  0  0  0  0  0  0  0  0  0  0
    2.3328  -46.1129  -27.3307 C   0  0  0  0  0  0  0  0  0  0  0  0
   -0.4713  -52.0256  -26.5973 C   0  0  0  0  0  0  0  0  0  0  0  0
   -0.0729  -51.3629  -25.4198 O   0  0  0  0  0  0  0  0  0  0  0  0
 41 42  1  0  0  0
 42 24  1  0  0  0
 24 25  2  0  0  0
 25 26  1  0  0  0
 26 27  2  0  0  0
 27 28  1  0  0  0
 28 29  2  0  0  0
 29  1  1  0  0  0
  1  3  1  0  0  0
  3  4  2  0  0  0
  4  5  1  0  0  0
  5  6  2  0  0  0
  6  7  1  0  0  0
  6  8  1  0  0  0
  8 10  1  0  0  0
 10 12  1  0  0  0
 12 13  2  0  0  0
 13 14  1  0  0  0
 14 15  2  0  0  0
 15 16  1  0  0  0
 16 17  2  0  0  0
 17 18  1  0  0  0
 18 19  2  0  0  0
 18 20  2  0  0  0
 18 21  1  0  0  0
 21 22  1  0  0  0
 21 23  1  0  0  0
  8  9  2  0  0  0
 26 30  1  0  0  0
 30 31  1  0  0  0
 31 32  1  0  0  0
 32 33  1  0  0  0
 33 34  1  0  0  0
 34 35  1  0  0  0
 34 36  1  0  0  0
 36 37  1  0  0  0
 37 38  1  0  0  0
 38 39  1  0  0  0
 39 40  1  0  0  0
 29 24  1  0  0  0
  9  3  1  0  0  0
 35 30  1  0  0  0
 40 36  1  0  0  0
 17 12  1  0  0  0
  1  2  1  0  0  0
 10 11  1  0  0  0
M  END
> <minimizedAffinity>
-7.40718

> <CNNscore>
0.2764902115

> <CNNaffinity>
7.3433494568

> <CNN_VS>
2.0303642750

> <CNNaffinity_variance>
0.3566569090

$$$$
[H]c1nc(N([H])c2c([H])c([H])c(N3C([H])([H])C([H])([H])C([H])([H])[C@]([H])(N4C([H])([H])C([H])([H])C([H])([H])C4([H])[H])C3([H])[H])c([H])c2OC([H])([H])[H])nc(N([H])c2c([H])c([H])c([H])c([H])c2S(=O)(=O)C([H])(C([H])([H])[H])C([H])([H])[H])c1Cl


 42 46  0  0  0  0  0  0  0  0999 V2000
    0.8181  -53.1041  -23.4981 N   0  0  0  0  0  0  0  0  0  0  0  0
    0.5110  -53.8997  -24.1549 H   0  0  0  0  0  0  0  0  0  0  0  0
    0.2734  -53.1219  -22.1988 C   0  0  0  0  0  0  0  0  0  0  0  0
   -0.5785  -54.0065  -21.7202 N   0  0  0  0  0  0  0  0  0  0  0  0
   -1.0811  -53.9934  -20.4771 C   0  0  0  0  0  0  0  0  0  0  0  0
   -0.7049  -52.9977  -19.6021 C   0  0  0  0  0  0  0  0  0  0  0  0
   -1.2978  -52.8929  -17.9732 Cl  0  0  0  0  0  0  0  0  0  0  0  0
    0.2027  -52.0316  -20.0690 C   0  0  0  0  0  0  0  0  0  0  0  0
    0.6439  -52.1371  -21.3288 N   0  0  0  0  0  0  0  0  0  0  0  0
    0.5766  -51.0063  -19.1829 N   0  0  0  0  0  0  0  0  0  0  0  0
    0.2651  -51.1553  -18.1670 H   0  0  0  0  0  0  0  0  0  0  0  0
    1.3012  -49.8261  -19.3864 C   0  0  0  0  0  0  0  0  0  0  0  0
    1.1777  -49.0784  -20.5182 C   0  0  0  0  0  0  0  0  0  0  0  0
    1.9114  -47.9145  -20.7774 C   0  0  0  0  0  0  0  0  0  0  0  0
    2.8041  -47.5287  -19.8095 C   0  0  0  0  0  0  0  0  0  0  0  0
    2.9439  -48.2672  -18.6622 C   0  0  0  0  0  0  0  0  0  0  0  0
    2.2180  -49.4106  -18.4145 C   0  0  0  0  0  0  0  0  0  0  0  0
    2.4451  -50.2634  -16.9030 S   0  0  0  0  0  0  0  0  0  0  0  0
    1.2400  -51.0270  -16.4687 O   0  0  0  0  0  0  0  0  0  0  0  0
    3.5314  -51.3138  -17.1212 O   0  0  0  0  0  0  0  0  0  0  0  0
    3.0009  -49.2452  -15.5909 C   0  0  0  0  0  0  0  0  0  0  0  0
    3.6883  -50.0743  -14.5225 C   0  0  0  0  0  0  0  0  0  0  0  0
    1.7519  -48.5831  -14.9910 C   0  0  0  0  0  0  0  0  0  0  0  0
    1.2665  -51.3311  -25.0843 C   0  0  0  0  0  0  0  0  0  0  0  0
    2.0925  -50.4110  -25.6714 C   0  0  0  0  0  0  0  0  0  0  0  0
    3.4095  -50.2598  -25.2972 C   0  0  0  0  0  0  0  0  0  0  0  0
    3.8560  -51.0859  -24.2964 C   0  0  0  0  0  0  0  0  0  0  0  0
    3.0227  -52.0317  -23.6862 C   0  0  0  0  0  0  0  0  0  0  0  0
    1.7141  -52.1822  -24.0579 C   0  0  0  0  0  0  0  0  0  0  0  0
    4.3038  -49.3337  -25.8889 N   0  0  0  0  0  0  0  0  0  0  0  0
    5.6901  -49.2282  -25.4479 C   0  0  0  0  0  0  0  0  0  0  0  0
    6.0949  -47.7858  -25.2098 C   0  0  0  0  0  0  0  0  0  0  0  0
    4.9268  -46.8322  -25.3609 C   0  0  0  0  0  0  0  0  0  0  0  0
    4.2566  -47.0036  -26.7135 C   0  0  0  0  0  0  0  0  0  0  0  0
    3.9256  -48.4485  -26.9758 C   0  0  0  0  0  0  0  0  0  0  0  0
    3.0123  -46.2584  -26.6744 N   0  0  0  0  0  0  0  0  0  0  0  0
    3.2692  -44.8460  -26.3722 C   0  0  0  0  0  0  0  0  0  0  0  0
    4.0663  -44.3517  -27.5347 C   0  0  0  0  0  0  0  0  0  0  0  0
    3.4642  -45.1369  -28.6971 C   0  0  0  0  0  0  0  0  0  0  0  0
    2.4620  -46.0897  -28.0318 C   0  0  0  0  0  0  0  0  0  0  0  0
   -0.3814  -52.0763  -26.7205 C   0  0  0  0  0  0  0  0  0  0  0  0
   -0.0428  -51.4123  -25.5253 O   0  0  0  0  0  0  0  0  0  0  0  0
 41 42  1  0  0  0
 42 24  1  0  0  0
 24 25  2  0  0  0
 25 26  1  0  0  0
 26 27  2  0  0  0
 27 28  1  0  0  0
 28 29  2  0  0  0
 29  1  1  0  0  0
  1  3  1  0  0  0
  3  4  2  0  0  0
  4  5  1  0  0  0
  5  6  2  0  0  0
  6  7  1  0  0  0
  6  8  1  0  0  0
  8 10  1  0  0  0
 10 12  1  0  0  0
 12 13  2  0  0  0
 13 14  1  0  0  0
 14 15  2  0  0  0
 15 16  1  0  0  0
 16 17  2  0  0  0
 17 18  1  0  0  0
 18 19  2  0  0  0
 18 20  2  0  0  0
 18 21  1  0  0  0
 21 22  1  0  0  0
 21 23  1  0  0  0
  8  9  2  0  0  0
 26 30  1  0  0  0
 30 31  1  0  0  0
 31 32  1  0  0  0
 32 33  1  0  0  0
 33 34  1  0  0  0
 34 35  1  0  0  0
 34 36  1  0  0  0
 36 37  1  0  0  0
 37 38  1  0  0  0
 38 39  1  0  0  0
 39 40  1  0  0  0
 29 24  1  0  0  0
  9  3  1  0  0  0
 35 30  1  0  0  0
 40 36  1  0  0  0
 17 12  1  0  0  0
  1  2  1  0  0  0
 10 11  1  0  0  0
M  END
> <minimizedAffinity>
-7.32593

> <CNNscore>
0.2009088844

> <CNNaffinity>
7.3103179932

> <CNN_VS>
1.4687077999

> <CNNaffinity_variance>
0.2059906423

$$$$
[H]c1nc(N([H])c2c([H])c([H])c(N3C([H])([H])C([H])([H])C([H])([H])[C@]([H])(N4C([H])([H])C([H])([H])C([H])([H])C4([H])[H])C3([H])[H])c([H])c2OC([H])([H])[H])nc(N([H])c2c([H])c([H])c([H])c([H])c2S(=O)(=O)C([H])(C([H])([H])[H])C([H])([H])[H])c1Cl


 42 46  0  0  0  0  0  0  0  0999 V2000
    0.6528  -50.8792  -18.8336 N   0  0  0  0  0  0  0  0  0  0  0  0
    0.1596  -50.7631  -17.8838 H   0  0  0  0  0  0  0  0  0  0  0  0
    0.1425  -51.8804  -19.6836 C   0  0  0  0  0  0  0  0  0  0  0  0
   -0.6230  -52.8927  -19.3277 N   0  0  0  0  0  0  0  0  0  0  0  0
   -1.0904  -53.8320  -20.1627 C   0  0  0  0  0  0  0  0  0  0  0  0
   -0.7703  -53.7717  -21.5016 C   0  0  0  0  0  0  0  0  0  0  0  0
   -1.3253  -54.9376  -22.6627 Cl  0  0  0  0  0  0  0  0  0  0  0  0
    0.0443  -52.7085  -21.9272 C   0  0  0  0  0  0  0  0  0  0  0  0
    0.4573  -51.8240  -21.0108 N   0  0  0  0  0  0  0  0  0  0  0  0
    0.3846  -52.6532  -23.2901 N   0  0  0  0  0  0  0  0  0  0  0  0
   -0.0605  -53.4193  -23.8953 H   0  0  0  0  0  0  0  0  0  0  0  0
    1.1921  -51.7623  -24.0067 C   0  0  0  0  0  0  0  0  0  0  0  0
    1.9528  -50.8118  -23.3958 C   0  0  0  0  0  0  0  0  0  0  0  0
    2.7430  -49.8778  -24.0765 C   0  0  0  0  0  0  0  0  0  0  0  0
    2.7286  -49.9506  -25.4465 C   0  0  0  0  0  0  0  0  0  0  0  0
    1.9697  -50.9003  -26.0817 C   0  0  0  0  0  0  0  0  0  0  0  0
    1.1956  -51.8159  -25.4049 C   0  0  0  0  0  0  0  0  0  0  0  0
    0.2896  -53.0109  -26.3075 S   0  0  0  0  0  0  0  0  0  0  0  0
    0.7579  -54.4074  -26.0743 O   0  0  0  0  0  0  0  0  0  0  0  0
   -1.1513  -52.9791  -25.8035 O   0  0  0  0  0  0  0  0  0  0  0  0
    0.2166  -52.6944  -28.0285 C   0  0  0  0  0  0  0  0  0  0  0  0
   -1.2157  -52.7538  -28.5247 C   0  0  0  0  0  0  0  0  0  0  0  0
    1.0346  -53.7997  -28.7121 C   0  0  0  0  0  0  0  0  0  0  0  0
    2.9540  -50.2525  -18.4186 C   0  0  0  0  0  0  0  0  0  0  0  0
    4.0383  -49.4363  -18.5965 C   0  0  0  0  0  0  0  0  0  0  0  0
    3.9973  -48.3248  -19.4091 C   0  0  0  0  0  0  0  0  0  0  0  0
    2.8032  -48.0748  -20.0376 C   0  0  0  0  0  0  0  0  0  0  0  0
    1.6855  -48.9008  -19.8656 C   0  0  0  0  0  0  0  0  0  0  0  0
    1.7259  -50.0051  -19.0581 C   0  0  0  0  0  0  0  0  0  0  0  0
    5.0888  -47.4436  -19.6082 N   0  0  0  0  0  0  0  0  0  0  0  0
    6.2844  -47.8657  -20.3290 C   0  0  0  0  0  0  0  0  0  0  0  0
    7.5508  -47.4980  -19.5791 C   0  0  0  0  0  0  0  0  0  0  0  0
    7.2558  -46.9066  -18.2154 C   0  0  0  0  0  0  0  0  0  0  0  0
    6.3150  -45.7191  -18.3299 C   0  0  0  0  0  0  0  0  0  0  0  0
    5.0953  -46.0695  -19.1395 C   0  0  0  0  0  0  0  0  0  0  0  0
    5.8807  -45.3836  -16.9867 N   0  0  0  0  0  0  0  0  0  0  0  0
    7.0374  -45.1149  -16.1253 C   0  0  0  0  0  0  0  0  0  0  0  0
    7.6754  -43.9022  -16.7200 C   0  0  0  0  0  0  0  0  0  0  0  0
    6.4677  -43.1133  -17.2193 C   0  0  0  0  0  0  0  0  0  0  0  0
    5.2738  -44.0404  -16.9546 C   0  0  0  0  0  0  0  0  0  0  0  0
    3.7010  -51.2433  -16.3190 C   0  0  0  0  0  0  0  0  0  0  0  0
    3.0877  -51.3475  -17.5829 O   0  0  0  0  0  0  0  0  0  0  0  0
 41 42  1  0  0  0
 42 24  1  0  0  0
 24 25  2  0  0  0
 25 26  1  0  0  0
 26 27  2  0  0  0
 27 28  1  0  0  0
 28 29  2  0  0  0
 29  1  1  0  0  0
  1  3  1  0  0  0
  3  4  2  0  0  0
  4  5  1  0  0  0
  5  6  2  0  0  0
  6  7  1  0  0  0
  6  8  1  0  0  0
  8 10  1  0  0  0
 10 12  1  0  0  0
 12 13  2  0  0  0
 13 14  1  0  0  0
 14 15  2  0  0  0
 15 16  1  0  0  0
 16 17  2  0  0  0
 17 18  1  0  0  0
 18 19  2  0  0  0
 18 20  2  0  0  0
 18 21  1  0  0  0
 21 22  1  0  0  0
 21 23  1  0  0  0
  8  9  2  0  0  0
 26 30  1  0  0  0
 30 31  1  0  0  0
 31 32  1  0  0  0
 32 33  1  0  0  0
 33 34  1  0  0  0
 34 35  1  0  0  0
 34 36  1  0  0  0
 36 37  1  0  0  0
 37 38  1  0  0  0
 38 39  1  0  0  0
 39 40  1  0  0  0
 29 24  1  0  0  0
  9  3  1  0  0  0
 35 30  1  0  0  0
 40 36  1  0  0  0
 17 12  1  0  0  0
  1  2  1  0  0  0
 10 11  1  0  0  0
M  END
> <minimizedAffinity>
-7.37250

> <CNNscore>
0.1755553037

> <CNNaffinity>
7.0178613663

> <CNN_VS>
1.2320227623

> <CNNaffinity_variance>
0.1529234201

$$$$
[H]c1nc(N([H])c2c([H])c([H])c(N3C([H])([H])C([H])([H])C([H])([H])[C@]([H])(N4C([H])([H])C([H])([H])C([H])([H])C4([H])[H])C3([H])[H])c([H])c2OC([H])([H])[H])nc(N([H])c2c([H])c([H])c([H])c([H])c2S(=O)(=O)C([H])(C([H])([H])[H])C([H])([H])[H])c1Cl


 42 46  0  0  0  0  0  0  0  0999 V2000
   -0.4660  -51.1701  -20.3171 N   0  0  0  0  0  0  0  0  0  0  0  0
   -1.2600  -50.9350  -19.6293 H   0  0  0  0  0  0  0  0  0  0  0  0
   -0.6567  -52.3084  -21.1251 C   0  0  0  0  0  0  0  0  0  0  0  0
   -1.3643  -53.3768  -20.8163 N   0  0  0  0  0  0  0  0  0  0  0  0
   -1.5238  -54.4469  -21.6085 C   0  0  0  0  0  0  0  0  0  0  0  0
   -0.9196  -54.4723  -22.8466 C   0  0  0  0  0  0  0  0  0  0  0  0
   -1.0652  -55.8092  -23.9454 Cl  0  0  0  0  0  0  0  0  0  0  0  0
   -0.1545  -53.3539  -23.2190 C   0  0  0  0  0  0  0  0  0  0  0  0
   -0.0598  -52.3374  -22.3526 N   0  0  0  0  0  0  0  0  0  0  0  0
    0.4751  -53.3839  -24.4755 N   0  0  0  0  0  0  0  0  0  0  0  0
   -0.1459  -53.7262  -25.2807 H   0  0  0  0  0  0  0  0  0  0  0  0
    1.7705  -53.0293  -24.8700 C   0  0  0  0  0  0  0  0  0  0  0  0
    2.7092  -52.5896  -23.9864 C   0  0  0  0  0  0  0  0  0  0  0  0
    4.0019  -52.1888  -24.3447 C   0  0  0  0  0  0  0  0  0  0  0  0
    4.3123  -52.2548  -25.6796 C   0  0  0  0  0  0  0  0  0  0  0  0
    3.3818  -52.6950  -26.5862 C   0  0  0  0  0  0  0  0  0  0  0  0
    2.1125  -53.0880  -26.2255 C   0  0  0  0  0  0  0  0  0  0  0  0
    1.0094  -53.6673  -27.4547 S   0  0  0  0  0  0  0  0  0  0  0  0
    1.7002  -54.2247  -28.6531 O   0  0  0  0  0  0  0  0  0  0  0  0
    0.2251  -54.8352  -26.8615 O   0  0  0  0  0  0  0  0  0  0  0  0
   -0.1775  -52.4819  -27.9581 C   0  0  0  0  0  0  0  0  0  0  0  0
   -1.4171  -52.5607  -27.0873 C   0  0  0  0  0  0  0  0  0  0  0  0
   -0.5543  -52.8271  -29.4061 C   0  0  0  0  0  0  0  0  0  0  0  0
    1.5320  -50.3664  -19.2112 C   0  0  0  0  0  0  0  0  0  0  0  0
    2.6181  -49.5381  -19.1233 C   0  0  0  0  0  0  0  0  0  0  0  0
    2.8945  -48.5833  -20.0769 C   0  0  0  0  0  0  0  0  0  0  0  0
    2.0179  -48.5038  -21.1297 C   0  0  0  0  0  0  0  0  0  0  0  0
    0.9027  -49.3445  -21.2334 C   0  0  0  0  0  0  0  0  0  0  0  0
    0.6277  -50.2932  -20.2860 C   0  0  0  0  0  0  0  0  0  0  0  0
    3.9961  -47.6942  -20.0172 N   0  0  0  0  0  0  0  0  0  0  0  0
    3.8098  -46.2488  -20.0743 C   0  0  0  0  0  0  0  0  0  0  0  0
    4.7538  -45.6003  -21.0692 C   0  0  0  0  0  0  0  0  0  0  0  0
    5.5568  -46.6243  -21.8458 C   0  0  0  0  0  0  0  0  0  0  0  0
    6.2990  -47.5593  -20.9061 C   0  0  0  0  0  0  0  0  0  0  0  0
    5.3700  -48.1411  -19.8742 C   0  0  0  0  0  0  0  0  0  0  0  0
    6.8190  -48.6511  -21.7080 N   0  0  0  0  0  0  0  0  0  0  0  0
    7.8355  -48.1607  -22.6452 C   0  0  0  0  0  0  0  0  0  0  0  0
    8.9411  -47.6617  -21.7734 C   0  0  0  0  0  0  0  0  0  0  0  0
    8.9024  -48.6455  -20.6069 C   0  0  0  0  0  0  0  0  0  0  0  0
    7.6819  -49.5294  -20.8970 C   0  0  0  0  0  0  0  0  0  0  0  0
    1.0937  -50.9062  -16.8736 C   0  0  0  0  0  0  0  0  0  0  0  0
    1.3337  -51.2964  -18.2056 O   0  0  0  0  0  0  0  0  0  0  0  0
 41 42  1  0  0  0
 42 24  1  0  0  0
 24 25  2  0  0  0
 25 26  1  0  0  0
 26 27  2  0  0  0
 27 28  1  0  0  0
 28 29  2  0  0  0
 29  1  1  0  0  0
  1  3  1  0  0  0
  3  4  2  0  0  0
  4  5  1  0  0  0
  5  6  2  0  0  0
  6  7  1  0  0  0
  6  8  1  0  0  0
  8 10  1  0  0  0
 10 12  1  0  0  0
 12 13  2  0  0  0
 13 14  1  0  0  0
 14 15  2  0  0  0
 15 16  1  0  0  0
 16 17  2  0  0  0
 17 18  1  0  0  0
 18 19  2  0  0  0
 18 20  2  0  0  0
 18 21  1  0  0  0
 21 22  1  0  0  0
 21 23  1  0  0  0
  8  9  2  0  0  0
 26 30  1  0  0  0
 30 31  1  0  0  0
 31 32  1  0  0  0
 32 33  1  0  0  0
 33 34  1  0  0  0
 34 35  1  0  0  0
 34 36  1  0  0  0
 36 37  1  0  0  0
 37 38  1  0  0  0
 38 39  1  0  0  0
 39 40  1  0  0  0
 29 24  1  0  0  0
  9  3  1  0  0  0
 35 30  1  0  0  0
 40 36  1  0  0  0
 17 12  1  0  0  0
  1  2  1  0  0  0
 10 11  1  0  0  0
M  END
> <minimizedAffinity>
-7.84765

> <CNNscore>
0.1608702540

> <CNNaffinity>
7.4831137657

> <CNN_VS>
1.2038104534

> <CNNaffinity_variance>
0.1248593479

$$$$
[H]c1nc(N([H])c2c([H])c([H])c(N3C([H])([H])C([H])([H])C([H])([H])[C@]([H])(N4C([H])([H])C([H])([H])C([H])([H])C4([H])[H])C3([H])[H])c([H])c2OC([H])([H])[H])nc(N([H])c2c([H])c([H])c([H])c([H])c2S(=O)(=O)C([H])(C([H])([H])[H])C([H])([H])[H])c1Cl


 42 46  0  0  0  0  0  0  0  0999 V2000
   -0.8567  -51.3308  -20.2939 N   0  0  0  0  0  0  0  0  0  0  0  0
   -1.7933  -50.8694  -20.0320 H   0  0  0  0  0  0  0  0  0  0  0  0
   -0.9307  -52.4622  -21.1304 C   0  0  0  0  0  0  0  0  0  0  0  0
   -1.5069  -53.6119  -20.8415 N   0  0  0  0  0  0  0  0  0  0  0  0
   -1.5573  -54.6723  -21.6607 C   0  0  0  0  0  0  0  0  0  0  0  0
   -0.9754  -54.5966  -22.9074 C   0  0  0  0  0  0  0  0  0  0  0  0
   -0.9869  -55.9124  -24.0407 Cl  0  0  0  0  0  0  0  0  0  0  0  0
   -0.3487  -53.3889  -23.2593 C   0  0  0  0  0  0  0  0  0  0  0  0
   -0.3554  -52.3911  -22.3665 N   0  0  0  0  0  0  0  0  0  0  0  0
    0.2587  -53.3144  -24.5249 N   0  0  0  0  0  0  0  0  0  0  0  0
   -0.4008  -53.4991  -25.3509 H   0  0  0  0  0  0  0  0  0  0  0  0
    1.5745  -53.0243  -24.9040 C   0  0  0  0  0  0  0  0  0  0  0  0
    2.5168  -52.6069  -24.0133 C   0  0  0  0  0  0  0  0  0  0  0  0
    3.8313  -52.2698  -24.3573 C   0  0  0  0  0  0  0  0  0  0  0  0
    4.1605  -52.3770  -25.6849 C   0  0  0  0  0  0  0  0  0  0  0  0
    3.2268  -52.7956  -26.5984 C   0  0  0  0  0  0  0  0  0  0  0  0
    1.9359  -53.1260  -26.2519 C   0  0  0  0  0  0  0  0  0  0  0  0
    0.8290  -53.6829  -27.4881 S   0  0  0  0  0  0  0  0  0  0  0  0
    1.5135  -54.3138  -28.6531 O   0  0  0  0  0  0  0  0  0  0  0  0
   -0.0304  -54.7878  -26.8782 O   0  0  0  0  0  0  0  0  0  0  0  0
   -0.2804  -52.4514  -28.0537 C   0  0  0  0  0  0  0  0  0  0  0  0
   -1.5870  -52.5127  -27.2855 C   0  0  0  0  0  0  0  0  0  0  0  0
   -0.5505  -52.7523  -29.5350 C   0  0  0  0  0  0  0  0  0  0  0  0
    0.6016  -50.9467  -18.4001 C   0  0  0  0  0  0  0  0  0  0  0  0
    1.6983  -50.3772  -17.8114 C   0  0  0  0  0  0  0  0  0  0  0  0
    2.5553  -49.5472  -18.4998 C   0  0  0  0  0  0  0  0  0  0  0  0
    2.2514  -49.3178  -19.8183 C   0  0  0  0  0  0  0  0  0  0  0  0
    1.1333  -49.8934  -20.4343 C   0  0  0  0  0  0  0  0  0  0  0  0
    0.2814  -50.7181  -19.7505 C   0  0  0  0  0  0  0  0  0  0  0  0
    3.6908  -48.9231  -17.9264 N   0  0  0  0  0  0  0  0  0  0  0  0
    3.7154  -48.5340  -16.5210 C   0  0  0  0  0  0  0  0  0  0  0  0
    4.2146  -47.1129  -16.3410 C   0  0  0  0  0  0  0  0  0  0  0  0
    4.4356  -46.4128  -17.6667 C   0  0  0  0  0  0  0  0  0  0  0  0
    5.3656  -47.2180  -18.5583 C   0  0  0  0  0  0  0  0  0  0  0  0
    4.9058  -48.6469  -18.6718 C   0  0  0  0  0  0  0  0  0  0  0  0
    5.3144  -46.6239  -19.8810 N   0  0  0  0  0  0  0  0  0  0  0  0
    5.9515  -45.3024  -19.8751 C   0  0  0  0  0  0  0  0  0  0  0  0
    7.3830  -45.5767  -19.5480 C   0  0  0  0  0  0  0  0  0  0  0  0
    7.6244  -46.9122  -20.2469 C   0  0  0  0  0  0  0  0  0  0  0  0
    6.2469  -47.3067  -20.7964 C   0  0  0  0  0  0  0  0  0  0  0  0
   -0.8712  -51.2880  -16.4864 C   0  0  0  0  0  0  0  0  0  0  0  0
   -0.2036  -51.7678  -17.6302 O   0  0  0  0  0  0  0  0  0  0  0  0
 41 42  1  0  0  0
 42 24  1  0  0  0
 24 25  2  0  0  0
 25 26  1  0  0  0
 26 27  2  0  0  0
 27 28  1  0  0  0
 28 29  2  0  0  0
 29  1  1  0  0  0
  1  3  1  0  0  0
  3  4  2  0  0  0
  4  5  1  0  0  0
  5  6  2  0  0  0
  6  7  1  0  0  0
  6  8  1  0  0  0
  8 10  1  0  0  0
 10 12  1  0  0  0
 12 13  2  0  0  0
 13 14  1  0  0  0
 14 15  2  0  0  0
 15 16  1  0  0  0
 16 17  2  0  0  0
 17 18  1  0  0  0
 18 19  2  0  0  0
 18 20  2  0  0  0
 18 21  1  0  0  0
 21 22  1  0  0  0
 21 23  1  0  0  0
  8  9  2  0  0  0
 26 30  1  0  0  0
 30 31  1  0  0  0
 31 32  1  0  0  0
 32 33  1  0  0  0
 33 34  1  0  0  0
 34 35  1  0  0  0
 34 36  1  0  0  0
 36 37  1  0  0  0
 37 38  1  0  0  0
 38 39  1  0  0  0
 39 40  1  0  0  0
 29 24  1  0  0  0
  9  3  1  0  0  0
 35 30  1  0  0  0
 40 36  1  0  0  0
 17 12  1  0  0  0
  1  2  1  0  0  0
 10 11  1  0  0  0
M  END
> <minimizedAffinity>
-7.36313

> <CNNscore>
0.1584420055

> <CNNaffinity>
7.4195251465

> <CNN_VS>
1.1755644083

> <CNNaffinity_variance>
0.0579105318

$$$$
[H]c1nc(N([H])c2c([H])c([H])c(N3C([H])([H])C([H])([H])C([H])([H])[C@]([H])(N4C([H])([H])C([H])([H])C([H])([H])C4([H])[H])C3([H])[H])c([H])c2OC([H])([H])[H])nc(N([H])c2c([H])c([H])c([H])c([H])c2S(=O)(=O)C([H])(C([H])([H])[H])C([H])([H])[H])c1Cl


 42 46  0  0  0  0  0  0  0  0999 V2000
    0.5111  -51.1827  -19.6533 N   0  0  0  0  0  0  0  0  0  0  0  0
    0.1828  -51.1768  -18.6282 H   0  0  0  0  0  0  0  0  0  0  0  0
    0.0113  -52.2220  -20.4628 C   0  0  0  0  0  0  0  0  0  0  0  0
   -0.9369  -53.0783  -20.1389 N   0  0  0  0  0  0  0  0  0  0  0  0
   -1.3886  -54.0598  -20.9331 C   0  0  0  0  0  0  0  0  0  0  0  0
   -0.8479  -54.2203  -22.1902 C   0  0  0  0  0  0  0  0  0  0  0  0
   -1.3635  -55.4585  -23.2932 Cl  0  0  0  0  0  0  0  0  0  0  0  0
    0.1670  -53.3293  -22.5792 C   0  0  0  0  0  0  0  0  0  0  0  0
    0.5444  -52.3841  -21.7092 N   0  0  0  0  0  0  0  0  0  0  0  0
    0.7305  -53.5004  -23.8557 N   0  0  0  0  0  0  0  0  0  0  0  0
    0.5368  -54.4540  -24.3078 H   0  0  0  0  0  0  0  0  0  0  0  0
    1.4902  -52.6380  -24.6548 C   0  0  0  0  0  0  0  0  0  0  0  0
    2.6188  -52.0250  -24.2010 C   0  0  0  0  0  0  0  0  0  0  0  0
    3.3845  -51.1269  -24.9540 C   0  0  0  0  0  0  0  0  0  0  0  0
    2.9433  -50.8682  -26.2272 C   0  0  0  0  0  0  0  0  0  0  0  0
    1.8093  -51.4750  -26.7039 C   0  0  0  0  0  0  0  0  0  0  0  0
    1.0621  -52.3578  -25.9571 C   0  0  0  0  0  0  0  0  0  0  0  0
   -0.3507  -53.1062  -26.6694 S   0  0  0  0  0  0  0  0  0  0  0  0
   -0.2071  -54.5784  -26.8592 O   0  0  0  0  0  0  0  0  0  0  0  0
   -1.5096  -52.9369  -25.6899 O   0  0  0  0  0  0  0  0  0  0  0  0
   -0.8636  -52.3666  -28.1718 C   0  0  0  0  0  0  0  0  0  0  0  0
   -2.3472  -52.5868  -28.3992 C   0  0  0  0  0  0  0  0  0  0  0  0
   -0.0727  -53.0572  -29.2923 C   0  0  0  0  0  0  0  0  0  0  0  0
    2.6903  -50.1432  -19.4765 C   0  0  0  0  0  0  0  0  0  0  0  0
    3.5911  -49.1584  -19.7802 C   0  0  0  0  0  0  0  0  0  0  0  0
    3.2806  -48.1101  -20.6181 C   0  0  0  0  0  0  0  0  0  0  0  0
    2.0106  -48.1028  -21.1381 C   0  0  0  0  0  0  0  0  0  0  0  0
    1.0784  -49.1034  -20.8368 C   0  0  0  0  0  0  0  0  0  0  0  0
    1.3865  -50.1451  -20.0041 C   0  0  0  0  0  0  0  0  0  0  0  0
    4.1749  -47.0610  -20.9456 N   0  0  0  0  0  0  0  0  0  0  0  0
    4.2800  -45.8656  -20.1167 C   0  0  0  0  0  0  0  0  0  0  0  0
    4.2300  -44.5989  -20.9499 C   0  0  0  0  0  0  0  0  0  0  0  0
    3.9522  -44.8872  -22.4116 C   0  0  0  0  0  0  0  0  0  0  0  0
    4.9580  -45.8790  -22.9707 C   0  0  0  0  0  0  0  0  0  0  0  0
    5.0577  -47.1012  -22.0975 C   0  0  0  0  0  0  0  0  0  0  0  0
    4.4723  -46.2963  -24.2727 N   0  0  0  0  0  0  0  0  0  0  0  0
    4.5393  -45.1835  -25.2263 C   0  0  0  0  0  0  0  0  0  0  0  0
    5.9972  -44.8838  -25.3525 C   0  0  0  0  0  0  0  0  0  0  0  0
    6.6241  -46.2705  -25.2331 C   0  0  0  0  0  0  0  0  0  0  0  0
    5.4394  -47.1966  -24.9267 C   0  0  0  0  0  0  0  0  0  0  0  0
    3.3372  -50.9230  -17.2580 C   0  0  0  0  0  0  0  0  0  0  0  0
    3.0907  -51.1580  -18.6249 O   0  0  0  0  0  0  0  0  0  0  0  0
 41 42  1  0  0  0
 42 24  1  0  0  0
 24 25  2  0  0  0
 25 26  1  0  0  0
 26 27  2  0  0  0
 27 28  1  0  0  0
 28 29  2  0  0  0
 29  1  1  0  0  0
  1  3  1  0  0  0
  3  4  2  0  0  0
  4  5  1  0  0  0
  5  6  2  0  0  0
  6  7  1  0  0  0
  6  8  1  0  0  0
  8 10  1  0  0  0
 10 12  1  0  0  0
 12 13  2  0  0  0
 13 14  1  0  0  0
 14 15  2  0  0  0
 15 16  1  0  0  0
 16 17  2  0  0  0
 17 18  1  0  0  0
 18 19  2  0  0  0
 18 20  2  0  0  0
 18 21  1  0  0  0
 21 22  1  0  0  0
 21 23  1  0  0  0
  8  9  2  0  0  0
 26 30  1  0  0  0
 30 31  1  0  0  0
 31 32  1  0  0  0
 32 33  1  0  0  0
 33 34  1  0  0  0
 34 35  1  0  0  0
 34 36  1  0  0  0
 36 37  1  0  0  0
 37 38  1  0  0  0
 38 39  1  0  0  0
 39 40  1  0  0  0
 29 24  1  0  0  0
  9  3  1  0  0  0
 35 30  1  0  0  0
 40 36  1  0  0  0
 17 12  1  0  0  0
  1  2  1  0  0  0
 10 11  1  0  0  0
M  END
> <minimizedAffinity>
-8.10708

> <CNNscore>
0.1451537162

> <CNNaffinity>
7.3159766197

> <CNN_VS>
1.0619411469

> <CNNaffinity_variance>
0.2938248217

$$$$
[H]c1nc(N([H])c2c([H])c([H])c(N3C([H])([H])C([H])([H])C([H])([H])[C@]([H])(N4C([H])([H])C([H])([H])C([H])([H])C4([H])[H])C3([H])[H])c([H])c2OC([H])([H])[H])nc(N([H])c2c([H])c([H])c([H])c([H])c2S(=O)(=O)C([H])(C([H])([H])[H])C([H])([H])[H])c1Cl


 42 46  0  0  0  0  0  0  0  0999 V2000
    1.2444  -52.8315  -24.0043 N   0  0  0  0  0  0  0  0  0  0  0  0
    0.9802  -53.6331  -24.6726 H   0  0  0  0  0  0  0  0  0  0  0  0
    0.7053  -52.8994  -22.7043 C   0  0  0  0  0  0  0  0  0  0  0  0
    0.0618  -53.9218  -22.1771 N   0  0  0  0  0  0  0  0  0  0  0  0
   -0.4424  -53.9532  -20.9350 C   0  0  0  0  0  0  0  0  0  0  0  0
   -0.2991  -52.8551  -20.1151 C   0  0  0  0  0  0  0  0  0  0  0  0
   -0.9148  -52.7967  -18.4923 Cl  0  0  0  0  0  0  0  0  0  0  0  0
    0.3809  -51.7406  -20.6352 C   0  0  0  0  0  0  0  0  0  0  0  0
    0.8454  -51.8134  -21.8888 N   0  0  0  0  0  0  0  0  0  0  0  0
    0.5153  -50.6136  -19.8057 N   0  0  0  0  0  0  0  0  0  0  0  0
   -0.2741  -49.8926  -19.8967 H   0  0  0  0  0  0  0  0  0  0  0  0
    1.4921  -50.2689  -18.8643 C   0  0  0  0  0  0  0  0  0  0  0  0
    1.6085  -50.9046  -17.6652 C   0  0  0  0  0  0  0  0  0  0  0  0
    2.5451  -50.5656  -16.6814 C   0  0  0  0  0  0  0  0  0  0  0  0
    3.3854  -49.5212  -16.9742 C   0  0  0  0  0  0  0  0  0  0  0  0
    3.2853  -48.8675  -18.1759 C   0  0  0  0  0  0  0  0  0  0  0  0
    2.3617  -49.2076  -19.1386 C   0  0  0  0  0  0  0  0  0  0  0  0
    2.3375  -48.3333  -20.6547 S   0  0  0  0  0  0  0  0  0  0  0  0
    0.9608  -48.0819  -21.1699 O   0  0  0  0  0  0  0  0  0  0  0  0
    2.9327  -46.9501  -20.4025 O   0  0  0  0  0  0  0  0  0  0  0  0
    3.3114  -49.0668  -21.9120 C   0  0  0  0  0  0  0  0  0  0  0  0
    4.1359  -50.2110  -21.3532 C   0  0  0  0  0  0  0  0  0  0  0  0
    4.2539  -47.9712  -22.4312 C   0  0  0  0  0  0  0  0  0  0  0  0
    3.4789  -51.9992  -24.4226 C   0  0  0  0  0  0  0  0  0  0  0  0
    4.3526  -51.0782  -24.9345 C   0  0  0  0  0  0  0  0  0  0  0  0
    3.9265  -49.9536  -25.6061 C   0  0  0  0  0  0  0  0  0  0  0  0
    2.5690  -49.8016  -25.7375 C   0  0  0  0  0  0  0  0  0  0  0  0
    1.6629  -50.7353  -25.2194 C   0  0  0  0  0  0  0  0  0  0  0  0
    2.0860  -51.8528  -24.5519 C   0  0  0  0  0  0  0  0  0  0  0  0
    4.7939  -48.9667  -26.1364 N   0  0  0  0  0  0  0  0  0  0  0  0
    6.1146  -48.7296  -25.5648 C   0  0  0  0  0  0  0  0  0  0  0  0
    6.3693  -47.2519  -25.3345 C   0  0  0  0  0  0  0  0  0  0  0  0
    5.1455  -46.4085  -25.6304 C   0  0  0  0  0  0  0  0  0  0  0  0
    4.6321  -46.6698  -27.0362 C   0  0  0  0  0  0  0  0  0  0  0  0
    4.4534  -48.1440  -27.2831 C   0  0  0  0  0  0  0  0  0  0  0  0
    3.3314  -46.0360  -27.1437 N   0  0  0  0  0  0  0  0  0  0  0  0
    3.4628  -44.5772  -27.0612 C   0  0  0  0  0  0  0  0  0  0  0  0
    4.2594  -44.2027  -28.2681 C   0  0  0  0  0  0  0  0  0  0  0  0
    3.7649  -45.2064  -29.3064 C   0  0  0  0  0  0  0  0  0  0  0  0
    2.8190  -46.1267  -28.5232 C   0  0  0  0  0  0  0  0  0  0  0  0
    5.3321  -53.1299  -23.3113 C   0  0  0  0  0  0  0  0  0  0  0  0
    3.9980  -53.0992  -23.7624 O   0  0  0  0  0  0  0  0  0  0  0  0
 41 42  1  0  0  0
 42 24  1  0  0  0
 24 25  2  0  0  0
 25 26  1  0  0  0
 26 27  2  0  0  0
 27 28  1  0  0  0
 28 29  2  0  0  0
 29  1  1  0  0  0
  1  3  1  0  0  0
  3  4  2  0  0  0
  4  5  1  0  0  0
  5  6  2  0  0  0
  6  7  1  0  0  0
  6  8  1  0  0  0
  8 10  1  0  0  0
 10 12  1  0  0  0
 12 13  2  0  0  0
 13 14  1  0  0  0
 14 15  2  0  0  0
 15 16  1  0  0  0
 16 17  2  0  0  0
 17 18  1  0  0  0
 18 19  2  0  0  0
 18 20  2  0  0  0
 18 21  1  0  0  0
 21 22  1  0  0  0
 21 23  1  0  0  0
  8  9  2  0  0  0
 26 30  1  0  0  0
 30 31  1  0  0  0
 31 32  1  0  0  0
 32 33  1  0  0  0
 33 34  1  0  0  0
 34 35  1  0  0  0
 34 36  1  0  0  0
 36 37  1  0  0  0
 37 38  1  0  0  0
 38 39  1  0  0  0
 39 40  1  0  0  0
 29 24  1  0  0  0
  9  3  1  0  0  0
 35 30  1  0  0  0
 40 36  1  0  0  0
 17 12  1  0  0  0
  1  2  1  0  0  0
 10 11  1  0  0  0
M  END
> <minimizedAffinity>
-6.14399

> <CNNscore>
0.1197982058

> <CNNaffinity>
7.0824460983

> <CNN_VS>
0.8484643102

> <CNNaffinity_variance>
0.1066742986

$$$$
[H]c1nc(N([H])c2c([H])c([H])c(N3C([H])([H])C([H])([H])C([H])([H])[C@]([H])(N4C([H])([H])C([H])([H])C([H])([H])C4([H])[H])C3([H])[H])c([H])c2OC([H])([H])[H])nc(N([H])c2c([H])c([H])c([H])c([H])c2S(=O)(=O)C([H])(C([H])([H])[H])C([H])([H])[H])c1Cl


 42 46  0  0  0  0  0  0  0  0999 V2000
    0.5144  -50.7518  -19.1168 N   0  0  0  0  0  0  0  0  0  0  0  0
    0.0024  -50.5714  -18.1872 H   0  0  0  0  0  0  0  0  0  0  0  0
    0.0636  -51.8506  -19.8747 C   0  0  0  0  0  0  0  0  0  0  0  0
   -0.8325  -52.7425  -19.5021 N   0  0  0  0  0  0  0  0  0  0  0  0
   -1.2383  -53.7805  -20.2478 C   0  0  0  0  0  0  0  0  0  0  0  0
   -0.7035  -53.9652  -21.5042 C   0  0  0  0  0  0  0  0  0  0  0  0
   -1.1625  -55.2761  -22.5466 Cl  0  0  0  0  0  0  0  0  0  0  0  0
    0.2564  -53.0379  -21.9442 C   0  0  0  0  0  0  0  0  0  0  0  0
    0.5909  -52.0370  -21.1201 N   0  0  0  0  0  0  0  0  0  0  0  0
    0.8143  -53.2329  -23.2197 N   0  0  0  0  0  0  0  0  0  0  0  0
    1.6537  -53.9008  -23.2451 H   0  0  0  0  0  0  0  0  0  0  0  0
    0.4587  -52.7213  -24.4732 C   0  0  0  0  0  0  0  0  0  0  0  0
   -0.7663  -52.9349  -25.0292 C   0  0  0  0  0  0  0  0  0  0  0  0
   -1.1480  -52.4745  -26.2950 C   0  0  0  0  0  0  0  0  0  0  0  0
   -0.2049  -51.7659  -26.9956 C   0  0  0  0  0  0  0  0  0  0  0  0
    1.0348  -51.5392  -26.4541 C   0  0  0  0  0  0  0  0  0  0  0  0
    1.4022  -51.9950  -25.2079 C   0  0  0  0  0  0  0  0  0  0  0  0
    2.9977  -51.6230  -24.5918 S   0  0  0  0  0  0  0  0  0  0  0  0
    3.7593  -52.8293  -24.1574 O   0  0  0  0  0  0  0  0  0  0  0  0
    3.8099  -51.0240  -25.7376 O   0  0  0  0  0  0  0  0  0  0  0  0
    3.0023  -50.4307  -23.3089 C   0  0  0  0  0  0  0  0  0  0  0  0
    3.2880  -49.0477  -23.8628 C   0  0  0  0  0  0  0  0  0  0  0  0
    4.1273  -50.8308  -22.3433 C   0  0  0  0  0  0  0  0  0  0  0  0
    2.8209  -50.0666  -18.8493 C   0  0  0  0  0  0  0  0  0  0  0  0
    3.8711  -49.2246  -19.0973 C   0  0  0  0  0  0  0  0  0  0  0  0
    3.7514  -48.1180  -19.9088 C   0  0  0  0  0  0  0  0  0  0  0  0
    2.5143  -47.9002  -20.4615 C   0  0  0  0  0  0  0  0  0  0  0  0
    1.4306  -48.7529  -20.2172 C   0  0  0  0  0  0  0  0  0  0  0  0
    1.5492  -49.8524  -19.4108 C   0  0  0  0  0  0  0  0  0  0  0  0
    4.8059  -47.2110  -20.1786 N   0  0  0  0  0  0  0  0  0  0  0  0
    5.3595  -47.0668  -21.5202 C   0  0  0  0  0  0  0  0  0  0  0  0
    6.8758  -47.1098  -21.5092 C   0  0  0  0  0  0  0  0  0  0  0  0
    7.4284  -47.4225  -20.1332 C   0  0  0  0  0  0  0  0  0  0  0  0
    6.8942  -46.4469  -19.0983 C   0  0  0  0  0  0  0  0  0  0  0  0
    5.3933  -46.3526  -19.1656 C   0  0  0  0  0  0  0  0  0  0  0  0
    7.2528  -46.9667  -17.7919 N   0  0  0  0  0  0  0  0  0  0  0  0
    8.6960  -46.8334  -17.5650 C   0  0  0  0  0  0  0  0  0  0  0  0
    8.9409  -45.3598  -17.5580 C   0  0  0  0  0  0  0  0  0  0  0  0
    7.6696  -44.8237  -16.9049 C   0  0  0  0  0  0  0  0  0  0  0  0
    6.7843  -46.0641  -16.7245 C   0  0  0  0  0  0  0  0  0  0  0  0
    3.3906  -50.9949  -16.6671 C   0  0  0  0  0  0  0  0  0  0  0  0
    3.0342  -51.1543  -18.0206 O   0  0  0  0  0  0  0  0  0  0  0  0
 41 42  1  0  0  0
 42 24  1  0  0  0
 24 25  2  0  0  0
 25 26  1  0  0  0
 26 27  2  0  0  0
 27 28  1  0  0  0
 28 29  2  0  0  0
 29  1  1  0  0  0
  1  3  1  0  0  0
  3  4  2  0  0  0
  4  5  1  0  0  0
  5  6  2  0  0  0
  6  7  1  0  0  0
  6  8  1  0  0  0
  8 10  1  0  0  0
 10 12  1  0  0  0
 12 13  2  0  0  0
 13 14  1  0  0  0
 14 15  2  0  0  0
 15 16  1  0  0  0
 16 17  2  0  0  0
 17 18  1  0  0  0
 18 19  2  0  0  0
 18 20  2  0  0  0
 18 21  1  0  0  0
 21 22  1  0  0  0
 21 23  1  0  0  0
  8  9  2  0  0  0
 26 30  1  0  0  0
 30 31  1  0  0  0
 31 32  1  0  0  0
 32 33  1  0  0  0
 33 34  1  0  0  0
 34 35  1  0  0  0
 34 36  1  0  0  0
 36 37  1  0  0  0
 37 38  1  0  0  0
 38 39  1  0  0  0
 39 40  1  0  0  0
 29 24  1  0  0  0
  9  3  1  0  0  0
 35 30  1  0  0  0
 40 36  1  0  0  0
 17 12  1  0  0  0
  1  2  1  0  0  0
 10 11  1  0  0  0
M  END
> <minimizedAffinity>
-6.75223

> <CNNscore>
0.1148671359

> <CNNaffinity>
6.9417176247

> <CNN_VS>
0.7973752022

> <CNNaffinity_variance>
0.2004902810

$$$$
[H]c1nc(N([H])c2c([H])c([H])c(N3C([H])([H])C([H])([H])C([H])([H])[C@]([H])(N4C([H])([H])C([H])([H])C([H])([H])C4([H])[H])C3([H])[H])c([H])c2OC([H])([H])[H])nc(N([H])c2c([H])c([H])c([H])c([H])c2S(=O)(=O)C([H])(C([H])([H])[H])C([H])([H])[H])c1Cl


 42 46  0  0  0  0  0  0  0  0999 V2000
    1.8468  -52.9763  -24.5711 N   0  0  0  0  0  0  0  0  0  0  0  0
    2.0487  -53.8751  -25.1281 H   0  0  0  0  0  0  0  0  0  0  0  0
    1.0028  -53.1124  -23.4511 C   0  0  0  0  0  0  0  0  0  0  0  0
    0.1246  -54.0737  -23.2461 N   0  0  0  0  0  0  0  0  0  0  0  0
   -0.6671  -54.1728  -22.1684 C   0  0  0  0  0  0  0  0  0  0  0  0
   -0.5884  -53.2191  -21.1770 C   0  0  0  0  0  0  0  0  0  0  0  0
   -1.5685  -53.2580  -19.7439 Cl  0  0  0  0  0  0  0  0  0  0  0  0
    0.3350  -52.1744  -21.3527 C   0  0  0  0  0  0  0  0  0  0  0  0
    1.0779  -52.1696  -22.4666 N   0  0  0  0  0  0  0  0  0  0  0  0
    0.4065  -51.1920  -20.3496 N   0  0  0  0  0  0  0  0  0  0  0  0
   -0.1504  -51.4170  -19.4605 H   0  0  0  0  0  0  0  0  0  0  0  0
    1.0917  -49.9726  -20.2960 C   0  0  0  0  0  0  0  0  0  0  0  0
    1.1937  -49.1434  -21.3718 C   0  0  0  0  0  0  0  0  0  0  0  0
    1.9016  -47.9355  -21.3711 C   0  0  0  0  0  0  0  0  0  0  0  0
    2.5215  -47.5932  -20.1959 C   0  0  0  0  0  0  0  0  0  0  0  0
    2.4312  -48.4138  -19.1006 C   0  0  0  0  0  0  0  0  0  0  0  0
    1.7324  -49.6000  -19.1092 C   0  0  0  0  0  0  0  0  0  0  0  0
    1.6485  -50.5598  -17.6479 S   0  0  0  0  0  0  0  0  0  0  0  0
    0.5528  -51.5712  -17.6675 O   0  0  0  0  0  0  0  0  0  0  0  0
    2.9407  -51.3668  -17.5476 O   0  0  0  0  0  0  0  0  0  0  0  0
    1.5461  -49.6096  -16.1803 C   0  0  0  0  0  0  0  0  0  0  0  0
    2.0834  -50.3913  -14.9965 C   0  0  0  0  0  0  0  0  0  0  0  0
    0.0567  -49.3112  -15.9549 C   0  0  0  0  0  0  0  0  0  0  0  0
    3.7521  -51.4833  -24.6061 C   0  0  0  0  0  0  0  0  0  0  0  0
    4.4083  -50.3666  -25.0487 C   0  0  0  0  0  0  0  0  0  0  0  0
    3.8535  -49.5026  -25.9669 C   0  0  0  0  0  0  0  0  0  0  0  0
    2.5979  -49.8210  -26.4201 C   0  0  0  0  0  0  0  0  0  0  0  0
    1.9144  -50.9601  -25.9768 C   0  0  0  0  0  0  0  0  0  0  0  0
    2.4653  -51.8186  -25.0643 C   0  0  0  0  0  0  0  0  0  0  0  0
    4.4887  -48.3273  -26.4389 N   0  0  0  0  0  0  0  0  0  0  0  0
    4.6368  -47.1505  -25.5902 C   0  0  0  0  0  0  0  0  0  0  0  0
    4.2109  -45.8838  -26.3081 C   0  0  0  0  0  0  0  0  0  0  0  0
    3.6174  -46.1724  -27.6723 C   0  0  0  0  0  0  0  0  0  0  0  0
    4.5747  -46.9939  -28.5189 C   0  0  0  0  0  0  0  0  0  0  0  0
    5.0524  -48.2104  -27.7718 C   0  0  0  0  0  0  0  0  0  0  0  0
    3.8390  -47.4442  -29.6856 N   0  0  0  0  0  0  0  0  0  0  0  0
    3.3454  -46.2970  -30.4554 C   0  0  0  0  0  0  0  0  0  0  0  0
    4.5804  -45.6026  -30.9288 C   0  0  0  0  0  0  0  0  0  0  0  0
    5.5317  -46.7697  -31.1799 C   0  0  0  0  0  0  0  0  0  0  0  0
    4.7551  -48.0021  -30.6971 C   0  0  0  0  0  0  0  0  0  0  0  0
    4.7315  -51.8254  -22.3989 C   0  0  0  0  0  0  0  0  0  0  0  0
    4.3878  -52.2941  -23.6819 O   0  0  0  0  0  0  0  0  0  0  0  0
 41 42  1  0  0  0
 42 24  1  0  0  0
 24 25  2  0  0  0
 25 26  1  0  0  0
 26 27  2  0  0  0
 27 28  1  0  0  0
 28 29  2  0  0  0
 29  1  1  0  0  0
  1  3  1  0  0  0
  3  4  2  0  0  0
  4  5  1  0  0  0
  5  6  2  0  0  0
  6  7  1  0  0  0
  6  8  1  0  0  0
  8 10  1  0  0  0
 10 12  1  0  0  0
 12 13  2  0  0  0
 13 14  1  0  0  0
 14 15  2  0  0  0
 15 16  1  0  0  0
 16 17  2  0  0  0
 17 18  1  0  0  0
 18 19  2  0  0  0
 18 20  2  0  0  0
 18 21  1  0  0  0
 21 22  1  0  0  0
 21 23  1  0  0  0
  8  9  2  0  0  0
 26 30  1  0  0  0
 30 31  1  0  0  0
 31 32  1  0  0  0
 32 33  1  0  0  0
 33 34  1  0  0  0
 34 35  1  0  0  0
 34 36  1  0  0  0
 36 37  1  0  0  0
 37 38  1  0  0  0
 38 39  1  0  0  0
 39 40  1  0  0  0
 29 24  1  0  0  0
  9  3  1  0  0  0
 35 30  1  0  0  0
 40 36  1  0  0  0
 17 12  1  0  0  0
  1  2  1  0  0  0
 10 11  1  0  0  0
M  END
> <minimizedAffinity>
-6.75574

> <CNNscore>
0.0820456520

> <CNNaffinity>
7.0150895119

> <CNN_VS>
0.5755575895

> <CNNaffinity_variance>
0.2091411352

$$$$
[H]c1nc(N([H])c2c([H])c([H])c(N3C([H])([H])C([H])([H])C(C([H])([H])[H])(C([H])([H])[H])C([H])([H])C3([H])[H])c([H])c2OC([H])([H])[H])nc(N([H])c2c([H])c([H])c([H])c([H])c2S(=O)(=O)C([H])(C([H])([H])[H])C([H])([H])[H])c1Cl


 39 42  0  0  0  0  0  0  0  0999 V2000
    0.2615  -52.9669  -21.9570 C   0  0  0  0  0  0  0  0  0  0  0  0
   -0.5579  -53.5144  -22.8579 N   0  0  0  0  0  0  0  0  0  0  0  0
   -0.5314  -53.2039  -24.1452 C   0  0  0  0  0  0  0  0  0  0  0  0
    0.3606  -52.2815  -24.6306 C   0  0  0  0  0  0  0  0  0  0  0  0
    0.4111  -51.8437  -26.3163 Cl  0  0  0  0  0  0  0  0  0  0  0  0
    1.2456  -51.6811  -23.7008 C   0  0  0  0  0  0  0  0  0  0  0  0
    1.1376  -52.0578  -22.4495 N   0  0  0  0  0  0  0  0  0  0  0  0
    0.2739  -53.2619  -20.5763 N   0  0  0  0  0  0  0  0  0  0  0  0
   -0.0572  -54.2620  -20.3476 H   0  0  0  0  0  0  0  0  0  0  0  0
   -0.2382  -52.2510  -18.4810 C   0  0  0  0  0  0  0  0  0  0  0  0
    0.0469  -51.4304  -17.4185 C   0  0  0  0  0  0  0  0  0  0  0  0
    1.2224  -50.7000  -17.3136 C   0  0  0  0  0  0  0  0  0  0  0  0
    2.1012  -50.8468  -18.3515 C   0  0  0  0  0  0  0  0  0  0  0  0
    1.8134  -51.6866  -19.4421 C   0  0  0  0  0  0  0  0  0  0  0  0
    0.6607  -52.4038  -19.5466 C   0  0  0  0  0  0  0  0  0  0  0  0
    1.4678  -49.8552  -16.2122 N   0  0  0  0  0  0  0  0  0  0  0  0
    0.7916  -50.0794  -14.9564 C   0  0  0  0  0  0  0  0  0  0  0  0
    1.8083  -50.4616  -13.9099 C   0  0  0  0  0  0  0  0  0  0  0  0
    2.9745  -49.5061  -13.8733 C   0  0  0  0  0  0  0  0  0  0  0  0
    2.5952  -48.3369  -12.9584 C   0  0  0  0  0  0  0  0  0  0  0  0
    4.1127  -50.2292  -13.1738 C   0  0  0  0  0  0  0  0  0  0  0  0
    3.4593  -49.0504  -15.1968 C   0  0  0  0  0  0  0  0  0  0  0  0
    2.3921  -48.7412  -16.2178 C   0  0  0  0  0  0  0  0  0  0  0  0
   -2.2125  -53.0386  -17.3648 C   0  0  0  0  0  0  0  0  0  0  0  0
   -1.4285  -52.9475  -18.5181 O   0  0  0  0  0  0  0  0  0  0  0  0
    2.1914  -50.7691  -24.2150 N   0  0  0  0  0  0  0  0  0  0  0  0
    1.8260  -49.8383  -24.5605 H   0  0  0  0  0  0  0  0  0  0  0  0
    3.5757  -50.9447  -24.2879 C   0  0  0  0  0  0  0  0  0  0  0  0
    4.1025  -52.2279  -24.1298 C   0  0  0  0  0  0  0  0  0  0  0  0
    5.4690  -52.3955  -24.0703 C   0  0  0  0  0  0  0  0  0  0  0  0
    6.3436  -51.3507  -24.1589 C   0  0  0  0  0  0  0  0  0  0  0  0
    5.8202  -50.1006  -24.3140 C   0  0  0  0  0  0  0  0  0  0  0  0
    4.4393  -49.8747  -24.3827 C   0  0  0  0  0  0  0  0  0  0  0  0
    3.8911  -48.2532  -24.6990 S   0  0  0  0  0  0  0  0  0  0  0  0
    2.9568  -47.7136  -23.6469 O   0  0  0  0  0  0  0  0  0  0  0  0
    5.1290  -47.3170  -24.5905 O   0  0  0  0  0  0  0  0  0  0  0  0
    3.1601  -48.0353  -26.2786 C   0  0  0  0  0  0  0  0  0  0  0  0
    4.1321  -48.7141  -27.2829 C   0  0  0  0  0  0  0  0  0  0  0  0
    2.9703  -46.6531  -26.7628 C   0  0  0  0  0  0  0  0  0  0  0  0
 24 25  1  0  0  0
 25 10  1  0  0  0
 10 11  2  0  0  0
 11 12  1  0  0  0
 12 13  2  0  0  0
 13 14  1  0  0  0
 14 15  2  0  0  0
 15  8  1  0  0  0
  8  1  1  0  0  0
  1  2  2  0  0  0
  2  3  1  0  0  0
  3  4  2  0  0  0
  4  5  1  0  0  0
  4  6  1  0  0  0
  6 26  1  0  0  0
 26 28  1  0  0  0
 28 29  2  0  0  0
 29 30  1  0  0  0
 30 31  2  0  0  0
 31 32  1  0  0  0
 32 33  2  0  0  0
 33 34  1  0  0  0
 34 35  2  0  0  0
 34 36  2  0  0  0
 34 37  1  0  0  0
 37 38  1  0  0  0
 37 39  1  0  0  0
  6  7  2  0  0  0
 12 16  1  0  0  0
 16 17  1  0  0  0
 17 18  1  0  0  0
 18 19  1  0  0  0
 19 20  1  0  0  0
 19 21  1  0  0  0
 19 22  1  0  0  0
 22 23  1  0  0  0
 15 10  1  0  0  0
  7  1  1  0  0  0
 23 16  1  0  0  0
 33 28  1  0  0  0
  8  9  1  0  0  0
 26 27  1  0  0  0
M  END
> <minimizedAffinity>
-7.03852

> <CNNscore>
0.2909388244

> <CNNaffinity>
7.2680826187

> <CNN_VS>
2.1145675182

> <CNNaffinity_variance>
0.3652484417

$$$$
[H]c1nc(N([H])c2c([H])c([H])c(N3C([H])([H])C([H])([H])C(C([H])([H])[H])(C([H])([H])[H])C([H])([H])C3([H])[H])c([H])c2OC([H])([H])[H])nc(N([H])c2c([H])c([H])c([H])c([H])c2S(=O)(=O)C([H])(C([H])([H])[H])C([H])([H])[H])c1Cl


 39 42  0  0  0  0  0  0  0  0999 V2000
    0.8852  -51.7874  -20.6981 C   0  0  0  0  0  0  0  0  0  0  0  0
   -0.0710  -52.4305  -20.0236 N   0  0  0  0  0  0  0  0  0  0  0  0
   -0.7891  -53.4141  -20.5443 C   0  0  0  0  0  0  0  0  0  0  0  0
   -0.5824  -53.8326  -21.8343 C   0  0  0  0  0  0  0  0  0  0  0  0
   -1.5191  -55.1153  -22.5505 Cl  0  0  0  0  0  0  0  0  0  0  0  0
    0.4259  -53.1712  -22.5787 C   0  0  0  0  0  0  0  0  0  0  0  0
    1.0794  -52.2106  -21.9708 N   0  0  0  0  0  0  0  0  0  0  0  0
    1.6773  -50.7343  -20.1910 N   0  0  0  0  0  0  0  0  0  0  0  0
    1.9289  -50.8492  -19.1491 H   0  0  0  0  0  0  0  0  0  0  0  0
    3.4814  -49.6219  -21.2781 C   0  0  0  0  0  0  0  0  0  0  0  0
    4.0272  -48.5745  -21.9773 C   0  0  0  0  0  0  0  0  0  0  0  0
    3.3038  -47.4527  -22.3574 C   0  0  0  0  0  0  0  0  0  0  0  0
    1.9867  -47.4487  -21.9883 C   0  0  0  0  0  0  0  0  0  0  0  0
    1.4232  -48.5197  -21.2721 C   0  0  0  0  0  0  0  0  0  0  0  0
    2.1314  -49.6210  -20.8984 C   0  0  0  0  0  0  0  0  0  0  0  0
    3.9084  -46.3909  -23.0605 N   0  0  0  0  0  0  0  0  0  0  0  0
    5.0432  -46.6372  -23.9184 C   0  0  0  0  0  0  0  0  0  0  0  0
    4.6549  -46.3452  -25.3463 C   0  0  0  0  0  0  0  0  0  0  0  0
    3.9937  -44.9977  -25.4924 C   0  0  0  0  0  0  0  0  0  0  0  0
    5.0976  -43.9493  -25.6657 C   0  0  0  0  0  0  0  0  0  0  0  0
    3.2333  -45.0221  -26.8072 C   0  0  0  0  0  0  0  0  0  0  0  0
    3.0429  -44.6406  -24.4141 C   0  0  0  0  0  0  0  0  0  0  0  0
    3.4651  -45.0137  -23.0143 C   0  0  0  0  0  0  0  0  0  0  0  0
    5.6137  -50.7254  -21.2885 C   0  0  0  0  0  0  0  0  0  0  0  0
    4.2621  -50.7060  -20.9336 O   0  0  0  0  0  0  0  0  0  0  0  0
    0.6649  -53.6388  -23.8882 N   0  0  0  0  0  0  0  0  0  0  0  0
    1.2251  -54.5307  -23.9875 H   0  0  0  0  0  0  0  0  0  0  0  0
    0.2104  -53.0694  -25.0807 C   0  0  0  0  0  0  0  0  0  0  0  0
   -1.1626  -53.0339  -25.3312 C   0  0  0  0  0  0  0  0  0  0  0  0
   -1.6154  -52.5944  -26.5563 C   0  0  0  0  0  0  0  0  0  0  0  0
   -0.7724  -52.1874  -27.5502 C   0  0  0  0  0  0  0  0  0  0  0  0
    0.5674  -52.2247  -27.2965 C   0  0  0  0  0  0  0  0  0  0  0  0
    1.0808  -52.6605  -26.0679 C   0  0  0  0  0  0  0  0  0  0  0  0
    2.7998  -52.5542  -25.8166 S   0  0  0  0  0  0  0  0  0  0  0  0
    3.2921  -53.3645  -24.6452 O   0  0  0  0  0  0  0  0  0  0  0  0
    3.4885  -53.2341  -27.0349 O   0  0  0  0  0  0  0  0  0  0  0  0
    3.4066  -50.9146  -25.6727 C   0  0  0  0  0  0  0  0  0  0  0  0
    2.3981  -50.1786  -24.7477 C   0  0  0  0  0  0  0  0  0  0  0  0
    3.4982  -50.1056  -26.9047 C   0  0  0  0  0  0  0  0  0  0  0  0
 24 25  1  0  0  0
 25 10  1  0  0  0
 10 11  2  0  0  0
 11 12  1  0  0  0
 12 13  2  0  0  0
 13 14  1  0  0  0
 14 15  2  0  0  0
 15  8  1  0  0  0
  8  1  1  0  0  0
  1  2  2  0  0  0
  2  3  1  0  0  0
  3  4  2  0  0  0
  4  5  1  0  0  0
  4  6  1  0  0  0
  6 26  1  0  0  0
 26 28  1  0  0  0
 28 29  2  0  0  0
 29 30  1  0  0  0
 30 31  2  0  0  0
 31 32  1  0  0  0
 32 33  2  0  0  0
 33 34  1  0  0  0
 34 35  2  0  0  0
 34 36  2  0  0  0
 34 37  1  0  0  0
 37 38  1  0  0  0
 37 39  1  0  0  0
  6  7  2  0  0  0
 12 16  1  0  0  0
 16 17  1  0  0  0
 17 18  1  0  0  0
 18 19  1  0  0  0
 19 20  1  0  0  0
 19 21  1  0  0  0
 19 22  1  0  0  0
 22 23  1  0  0  0
 15 10  1  0  0  0
  7  1  1  0  0  0
 23 16  1  0  0  0
 33 28  1  0  0  0
  8  9  1  0  0  0
 26 27  1  0  0  0
M  END
> <minimizedAffinity>
-7.35899

> <CNNscore>
0.2479503155

> <CNNaffinity>
7.2310805321

> <CNN_VS>
1.7929487228

> <CNNaffinity_variance>
0.3264861703

$$$$
[H]c1nc(N([H])c2c([H])c([H])c(N3C([H])([H])C([H])([H])C(C([H])([H])[H])(C([H])([H])[H])C([H])([H])C3([H])[H])c([H])c2OC([H])([H])[H])nc(N([H])c2c([H])c([H])c([H])c([H])c2S(=O)(=O)C([H])(C([H])([H])[H])C([H])([H])[H])c1Cl


 39 42  0  0  0  0  0  0  0  0999 V2000
    0.6860  -51.9008  -20.5965 C   0  0  0  0  0  0  0  0  0  0  0  0
   -0.1827  -52.7064  -19.9806 N   0  0  0  0  0  0  0  0  0  0  0  0
   -0.7945  -53.7122  -20.5875 C   0  0  0  0  0  0  0  0  0  0  0  0
   -0.5615  -53.9845  -21.9117 C   0  0  0  0  0  0  0  0  0  0  0  0
   -1.3601  -55.2929  -22.7400 Cl  0  0  0  0  0  0  0  0  0  0  0  0
    0.3559  -53.1486  -22.5957 C   0  0  0  0  0  0  0  0  0  0  0  0
    0.9073  -52.1807  -21.9039 N   0  0  0  0  0  0  0  0  0  0  0  0
    1.3634  -50.8167  -19.9971 N   0  0  0  0  0  0  0  0  0  0  0  0
    1.4467  -50.9015  -18.9256 H   0  0  0  0  0  0  0  0  0  0  0  0
    3.2651  -49.7653  -20.9730 C   0  0  0  0  0  0  0  0  0  0  0  0
    3.8907  -48.7276  -21.6174 C   0  0  0  0  0  0  0  0  0  0  0  0
    3.2395  -47.5618  -21.9956 C   0  0  0  0  0  0  0  0  0  0  0  0
    1.9090  -47.5032  -21.6835 C   0  0  0  0  0  0  0  0  0  0  0  0
    1.2637  -48.5640  -21.0235 C   0  0  0  0  0  0  0  0  0  0  0  0
    1.9011  -49.7084  -20.6518 C   0  0  0  0  0  0  0  0  0  0  0  0
    3.9247  -46.5125  -22.6411 N   0  0  0  0  0  0  0  0  0  0  0  0
    5.1326  -46.7796  -23.3853 C   0  0  0  0  0  0  0  0  0  0  0  0
    4.8874  -46.4887  -24.8449 C   0  0  0  0  0  0  0  0  0  0  0  0
    4.2638  -45.1322  -25.0581 C   0  0  0  0  0  0  0  0  0  0  0  0
    5.3950  -44.1011  -25.1282 C   0  0  0  0  0  0  0  0  0  0  0  0
    3.6325  -45.1516  -26.4397 C   0  0  0  0  0  0  0  0  0  0  0  0
    3.2196  -44.7559  -24.0771 C   0  0  0  0  0  0  0  0  0  0  0  0
    3.5000  -45.1287  -22.6421 C   0  0  0  0  0  0  0  0  0  0  0  0
    4.9103  -51.4256  -21.5216 C   0  0  0  0  0  0  0  0  0  0  0  0
    3.9770  -50.8952  -20.6268 O   0  0  0  0  0  0  0  0  0  0  0  0
    0.6261  -53.4640  -23.9441 N   0  0  0  0  0  0  0  0  0  0  0  0
    0.1078  -54.2870  -24.3605 H   0  0  0  0  0  0  0  0  0  0  0  0
    1.4844  -52.7831  -24.8114 C   0  0  0  0  0  0  0  0  0  0  0  0
    2.6496  -52.2115  -24.2969 C   0  0  0  0  0  0  0  0  0  0  0  0
    3.4368  -51.4290  -25.1136 C   0  0  0  0  0  0  0  0  0  0  0  0
    3.1256  -51.1826  -26.4200 C   0  0  0  0  0  0  0  0  0  0  0  0
    1.9858  -51.7457  -26.9146 C   0  0  0  0  0  0  0  0  0  0  0  0
    1.1512  -52.5509  -26.1285 C   0  0  0  0  0  0  0  0  0  0  0  0
   -0.2128  -53.3104  -26.8980 S   0  0  0  0  0  0  0  0  0  0  0  0
    0.0300  -54.7479  -27.2799 O   0  0  0  0  0  0  0  0  0  0  0  0
   -1.3463  -53.4100  -25.8369 O   0  0  0  0  0  0  0  0  0  0  0  0
   -0.8265  -52.4440  -28.2944 C   0  0  0  0  0  0  0  0  0  0  0  0
   -2.3715  -52.4327  -28.1296 C   0  0  0  0  0  0  0  0  0  0  0  0
   -0.5611  -53.0170  -29.6293 C   0  0  0  0  0  0  0  0  0  0  0  0
 24 25  1  0  0  0
 25 10  1  0  0  0
 10 11  2  0  0  0
 11 12  1  0  0  0
 12 13  2  0  0  0
 13 14  1  0  0  0
 14 15  2  0  0  0
 15  8  1  0  0  0
  8  1  1  0  0  0
  1  2  2  0  0  0
  2  3  1  0  0  0
  3  4  2  0  0  0
  4  5  1  0  0  0
  4  6  1  0  0  0
  6 26  1  0  0  0
 26 28  1  0  0  0
 28 29  2  0  0  0
 29 30  1  0  0  0
 30 31  2  0  0  0
 31 32  1  0  0  0
 32 33  2  0  0  0
 33 34  1  0  0  0
 34 35  2  0  0  0
 34 36  2  0  0  0
 34 37  1  0  0  0
 37 38  1  0  0  0
 37 39  1  0  0  0
  6  7  2  0  0  0
 12 16  1  0  0  0
 16 17  1  0  0  0
 17 18  1  0  0  0
 18 19  1  0  0  0
 19 20  1  0  0  0
 19 21  1  0  0  0
 19 22  1  0  0  0
 22 23  1  0  0  0
 15 10  1  0  0  0
  7  1  1  0  0  0
 23 16  1  0  0  0
 33 28  1  0  0  0
  8  9  1  0  0  0
 26 27  1  0  0  0
M  END
> <minimizedAffinity>
-8.03979

> <CNNscore>
0.2467140406

> <CNNaffinity>
7.3831191063

> <CNN_VS>
1.8215191364

> <CNNaffinity_variance>
0.2754709721

$$$$
[H]c1nc(N([H])c2c([H])c([H])c(N3C([H])([H])C([H])([H])C(C([H])([H])[H])(C([H])([H])[H])C([H])([H])C3([H])[H])c([H])c2OC([H])([H])[H])nc(N([H])c2c([H])c([H])c([H])c([H])c2S(=O)(=O)C([H])(C([H])([H])[H])C([H])([H])[H])c1Cl


 39 42  0  0  0  0  0  0  0  0999 V2000
   -1.0142  -52.6720  -17.8459 C   0  0  0  0  0  0  0  0  0  0  0  0
   -2.2261  -53.2279  -17.9178 N   0  0  0  0  0  0  0  0  0  0  0  0
   -3.1630  -53.0454  -16.9995 C   0  0  0  0  0  0  0  0  0  0  0  0
   -2.9307  -52.2569  -15.9011 C   0  0  0  0  0  0  0  0  0  0  0  0
   -4.1391  -52.0079  -14.6708 Cl  0  0  0  0  0  0  0  0  0  0  0  0
   -1.6542  -51.6510  -15.7939 C   0  0  0  0  0  0  0  0  0  0  0  0
   -0.7980  -51.8955  -16.7565 N   0  0  0  0  0  0  0  0  0  0  0  0
    0.0181  -52.8345  -18.7953 N   0  0  0  0  0  0  0  0  0  0  0  0
    1.0064  -52.7936  -18.3668 H   0  0  0  0  0  0  0  0  0  0  0  0
   -0.0444  -51.8961  -20.9839 C   0  0  0  0  0  0  0  0  0  0  0  0
   -0.1830  -51.9826  -22.3466 C   0  0  0  0  0  0  0  0  0  0  0  0
   -0.4227  -53.1756  -23.0141 C   0  0  0  0  0  0  0  0  0  0  0  0
   -0.5150  -54.2858  -22.2203 C   0  0  0  0  0  0  0  0  0  0  0  0
   -0.3733  -54.2020  -20.8238 C   0  0  0  0  0  0  0  0  0  0  0  0
   -0.1383  -53.0324  -20.1674 C   0  0  0  0  0  0  0  0  0  0  0  0
   -0.5756  -53.2171  -24.4148 N   0  0  0  0  0  0  0  0  0  0  0  0
   -0.9958  -52.0400  -25.1375 C   0  0  0  0  0  0  0  0  0  0  0  0
    0.1236  -51.5916  -26.0435 C   0  0  0  0  0  0  0  0  0  0  0  0
    0.6679  -52.7231  -26.8788 C   0  0  0  0  0  0  0  0  0  0  0  0
   -0.1962  -52.8341  -28.1393 C   0  0  0  0  0  0  0  0  0  0  0  0
    2.0451  -52.2939  -27.3553 C   0  0  0  0  0  0  0  0  0  0  0  0
    0.8047  -54.0190  -26.1744 C   0  0  0  0  0  0  0  0  0  0  0  0
   -0.3215  -54.3806  -25.2375 C   0  0  0  0  0  0  0  0  0  0  0  0
    0.8948  -49.6889  -21.0874 C   0  0  0  0  0  0  0  0  0  0  0  0
    0.1927  -50.6744  -20.3882 O   0  0  0  0  0  0  0  0  0  0  0  0
   -1.4392  -50.8039  -14.6863 N   0  0  0  0  0  0  0  0  0  0  0  0
   -1.2791  -51.2668  -13.7486 H   0  0  0  0  0  0  0  0  0  0  0  0
   -1.3784  -49.4079  -14.6945 C   0  0  0  0  0  0  0  0  0  0  0  0
   -2.5600  -48.6819  -14.8552 C   0  0  0  0  0  0  0  0  0  0  0  0
   -2.4987  -47.3123  -14.9945 C   0  0  0  0  0  0  0  0  0  0  0  0
   -1.3202  -46.6230  -14.9836 C   0  0  0  0  0  0  0  0  0  0  0  0
   -0.1707  -47.3402  -14.8254 C   0  0  0  0  0  0  0  0  0  0  0  0
   -0.1766  -48.7334  -14.6773 C   0  0  0  0  0  0  0  0  0  0  0  0
    1.3400  -49.5286  -14.3652 S   0  0  0  0  0  0  0  0  0  0  0  0
    2.3873  -48.6234  -13.7697 O   0  0  0  0  0  0  0  0  0  0  0  0
    1.0911  -50.5743  -13.2404 O   0  0  0  0  0  0  0  0  0  0  0  0
    2.0207  -50.3526  -15.7562 C   0  0  0  0  0  0  0  0  0  0  0  0
    3.5040  -50.6327  -15.3876 C   0  0  0  0  0  0  0  0  0  0  0  0
    2.0483  -49.6240  -17.0405 C   0  0  0  0  0  0  0  0  0  0  0  0
 24 25  1  0  0  0
 25 10  1  0  0  0
 10 11  2  0  0  0
 11 12  1  0  0  0
 12 13  2  0  0  0
 13 14  1  0  0  0
 14 15  2  0  0  0
 15  8  1  0  0  0
  8  1  1  0  0  0
  1  2  2  0  0  0
  2  3  1  0  0  0
  3  4  2  0  0  0
  4  5  1  0  0  0
  4  6  1  0  0  0
  6 26  1  0  0  0
 26 28  1  0  0  0
 28 29  2  0  0  0
 29 30  1  0  0  0
 30 31  2  0  0  0
 31 32  1  0  0  0
 32 33  2  0  0  0
 33 34  1  0  0  0
 34 35  2  0  0  0
 34 36  2  0  0  0
 34 37  1  0  0  0
 37 38  1  0  0  0
 37 39  1  0  0  0
  6  7  2  0  0  0
 12 16  1  0  0  0
 16 17  1  0  0  0
 17 18  1  0  0  0
 18 19  1  0  0  0
 19 20  1  0  0  0
 19 21  1  0  0  0
 19 22  1  0  0  0
 22 23  1  0  0  0
 15 10  1  0  0  0
  7  1  1  0  0  0
 23 16  1  0  0  0
 33 28  1  0  0  0
  8  9  1  0  0  0
 26 27  1  0  0  0
M  END
> <minimizedAffinity>
-7.87450

> <CNNscore>
0.1788605750

> <CNNaffinity>
6.9984674454

> <CNN_VS>
1.2517498732

> <CNNaffinity_variance>
0.1296317279

$$$$
[H]c1nc(N([H])c2c([H])c([H])c(N3C([H])([H])C([H])([H])C(C([H])([H])[H])(C([H])([H])[H])C([H])([H])C3([H])[H])c([H])c2OC([H])([H])[H])nc(N([H])c2c([H])c([H])c([H])c([H])c2S(=O)(=O)C([H])(C([H])([H])[H])C([H])([H])[H])c1Cl


 39 42  0  0  0  0  0  0  0  0999 V2000
   -0.1342  -52.0199  -20.5072 C   0  0  0  0  0  0  0  0  0  0  0  0
   -0.8515  -53.0515  -20.0553 N   0  0  0  0  0  0  0  0  0  0  0  0
   -1.2327  -54.0611  -20.8232 C   0  0  0  0  0  0  0  0  0  0  0  0
   -0.9023  -54.0997  -22.1541 C   0  0  0  0  0  0  0  0  0  0  0  0
   -1.3996  -55.4081  -23.1917 Cl  0  0  0  0  0  0  0  0  0  0  0  0
   -0.1406  -53.0201  -22.6664 C   0  0  0  0  0  0  0  0  0  0  0  0
    0.1857  -52.0704  -21.8231 N   0  0  0  0  0  0  0  0  0  0  0  0
    0.2964  -50.9209  -19.7325 N   0  0  0  0  0  0  0  0  0  0  0  0
   -0.1164  -50.9089  -18.7367 H   0  0  0  0  0  0  0  0  0  0  0  0
    2.4532  -49.9211  -19.5810 C   0  0  0  0  0  0  0  0  0  0  0  0
    3.3847  -48.9696  -19.9137 C   0  0  0  0  0  0  0  0  0  0  0  0
    3.1349  -47.9388  -20.8088 C   0  0  0  0  0  0  0  0  0  0  0  0
    1.8803  -47.9235  -21.3536 C   0  0  0  0  0  0  0  0  0  0  0  0
    0.9228  -48.8964  -21.0159 C   0  0  0  0  0  0  0  0  0  0  0  0
    1.1662  -49.9083  -20.1379 C   0  0  0  0  0  0  0  0  0  0  0  0
    4.1155  -46.9718  -21.1096 N   0  0  0  0  0  0  0  0  0  0  0  0
    5.3072  -47.3430  -21.8353 C   0  0  0  0  0  0  0  0  0  0  0  0
    5.3087  -46.6442  -23.1719 C   0  0  0  0  0  0  0  0  0  0  0  0
    5.0461  -45.1649  -23.0413 C   0  0  0  0  0  0  0  0  0  0  0  0
    6.3858  -44.4722  -22.7711 C   0  0  0  0  0  0  0  0  0  0  0  0
    4.5938  -44.6771  -24.4070 C   0  0  0  0  0  0  0  0  0  0  0  0
    4.0102  -44.7925  -22.0500 C   0  0  0  0  0  0  0  0  0  0  0  0
    4.0266  -45.5706  -20.7573 C   0  0  0  0  0  0  0  0  0  0  0  0
    3.5428  -50.6133  -17.5566 C   0  0  0  0  0  0  0  0  0  0  0  0
    2.7724  -50.9179  -18.6821 O   0  0  0  0  0  0  0  0  0  0  0  0
    0.2356  -53.0902  -24.0244 N   0  0  0  0  0  0  0  0  0  0  0  0
   -0.5371  -53.2350  -24.7324 H   0  0  0  0  0  0  0  0  0  0  0  0
    1.5238  -52.9538  -24.5484 C   0  0  0  0  0  0  0  0  0  0  0  0
    2.5611  -52.5677  -23.6975 C   0  0  0  0  0  0  0  0  0  0  0  0
    3.8064  -52.3044  -24.2254 C   0  0  0  0  0  0  0  0  0  0  0  0
    4.0765  -52.4039  -25.5601 C   0  0  0  0  0  0  0  0  0  0  0  0
    3.0574  -52.7825  -26.3840 C   0  0  0  0  0  0  0  0  0  0  0  0
    1.7734  -53.0640  -25.8994 C   0  0  0  0  0  0  0  0  0  0  0  0
    0.5845  -53.6505  -27.0273 S   0  0  0  0  0  0  0  0  0  0  0  0
    1.1576  -54.5289  -28.1095 O   0  0  0  0  0  0  0  0  0  0  0  0
   -0.3570  -54.6133  -26.2480 O   0  0  0  0  0  0  0  0  0  0  0  0
   -0.3882  -52.3924  -27.7677 C   0  0  0  0  0  0  0  0  0  0  0  0
   -1.7068  -52.3502  -26.9467 C   0  0  0  0  0  0  0  0  0  0  0  0
   -0.7890  -52.5743  -29.1773 C   0  0  0  0  0  0  0  0  0  0  0  0
 24 25  1  0  0  0
 25 10  1  0  0  0
 10 11  2  0  0  0
 11 12  1  0  0  0
 12 13  2  0  0  0
 13 14  1  0  0  0
 14 15  2  0  0  0
 15  8  1  0  0  0
  8  1  1  0  0  0
  1  2  2  0  0  0
  2  3  1  0  0  0
  3  4  2  0  0  0
  4  5  1  0  0  0
  4  6  1  0  0  0
  6 26  1  0  0  0
 26 28  1  0  0  0
 28 29  2  0  0  0
 29 30  1  0  0  0
 30 31  2  0  0  0
 31 32  1  0  0  0
 32 33  2  0  0  0
 33 34  1  0  0  0
 34 35  2  0  0  0
 34 36  2  0  0  0
 34 37  1  0  0  0
 37 38  1  0  0  0
 37 39  1  0  0  0
  6  7  2  0  0  0
 12 16  1  0  0  0
 16 17  1  0  0  0
 17 18  1  0  0  0
 18 19  1  0  0  0
 19 20  1  0  0  0
 19 21  1  0  0  0
 19 22  1  0  0  0
 22 23  1  0  0  0
 15 10  1  0  0  0
  7  1  1  0  0  0
 23 16  1  0  0  0
 33 28  1  0  0  0
  8  9  1  0  0  0
 26 27  1  0  0  0
M  END
> <minimizedAffinity>
-8.58533

> <CNNscore>
0.1774206758

> <CNNaffinity>
7.1983809471

> <CNN_VS>
1.2771415710

> <CNNaffinity_variance>
0.2101710737

$$$$
[H]c1nc(N([H])c2c([H])c([H])c(N3C([H])([H])C([H])([H])C(C([H])([H])[H])(C([H])([H])[H])C([H])([H])C3([H])[H])c([H])c2OC([H])([H])[H])nc(N([H])c2c([H])c([H])c([H])c([H])c2S(=O)(=O)C([H])(C([H])([H])[H])C([H])([H])[H])c1Cl


 39 42  0  0  0  0  0  0  0  0999 V2000
   -0.0482  -51.9236  -20.4537 C   0  0  0  0  0  0  0  0  0  0  0  0
   -0.7046  -53.0593  -20.2045 N   0  0  0  0  0  0  0  0  0  0  0  0
   -1.0107  -53.9409  -21.1443 C   0  0  0  0  0  0  0  0  0  0  0  0
   -0.6606  -53.7273  -22.4535 C   0  0  0  0  0  0  0  0  0  0  0  0
   -1.0599  -54.8628  -23.7133 Cl  0  0  0  0  0  0  0  0  0  0  0  0
    0.0379  -52.5312  -22.7529 C   0  0  0  0  0  0  0  0  0  0  0  0
    0.2920  -51.7250  -21.7504 N   0  0  0  0  0  0  0  0  0  0  0  0
    0.3014  -50.9523  -19.4905 N   0  0  0  0  0  0  0  0  0  0  0  0
   -0.2322  -51.0584  -18.5599 H   0  0  0  0  0  0  0  0  0  0  0  0
    2.3431  -49.9447  -18.7901 C   0  0  0  0  0  0  0  0  0  0  0  0
    3.3168  -48.9800  -18.8615 C   0  0  0  0  0  0  0  0  0  0  0  0
    3.2828  -47.9284  -19.7667 C   0  0  0  0  0  0  0  0  0  0  0  0
    2.2005  -47.9064  -20.6029 C   0  0  0  0  0  0  0  0  0  0  0  0
    1.2007  -48.8928  -20.5336 C   0  0  0  0  0  0  0  0  0  0  0  0
    1.2324  -49.9250  -19.6461 C   0  0  0  0  0  0  0  0  0  0  0  0
    4.2960  -46.9488  -19.7947 N   0  0  0  0  0  0  0  0  0  0  0  0
    3.9911  -45.5958  -20.1956 C   0  0  0  0  0  0  0  0  0  0  0  0
    4.1978  -44.6743  -19.0195 C   0  0  0  0  0  0  0  0  0  0  0  0
    5.5378  -44.8842  -18.3603 C   0  0  0  0  0  0  0  0  0  0  0  0
    6.5671  -44.0281  -19.1057 C   0  0  0  0  0  0  0  0  0  0  0  0
    5.4379  -44.2929  -16.9646 C   0  0  0  0  0  0  0  0  0  0  0  0
    5.9657  -46.2968  -18.2353 C   0  0  0  0  0  0  0  0  0  0  0  0
    5.6761  -47.1798  -19.4241 C   0  0  0  0  0  0  0  0  0  0  0  0
    3.4290  -50.9024  -16.8749 C   0  0  0  0  0  0  0  0  0  0  0  0
    2.4430  -50.9619  -17.8635 O   0  0  0  0  0  0  0  0  0  0  0  0
    0.4360  -52.3413  -24.0930 N   0  0  0  0  0  0  0  0  0  0  0  0
   -0.1524  -52.8028  -24.8414 H   0  0  0  0  0  0  0  0  0  0  0  0
    1.5113  -51.5750  -24.5504 C   0  0  0  0  0  0  0  0  0  0  0  0
    2.0783  -50.6290  -23.6944 C   0  0  0  0  0  0  0  0  0  0  0  0
    3.0513  -49.7795  -24.1747 C   0  0  0  0  0  0  0  0  0  0  0  0
    3.4919  -49.8198  -25.4664 C   0  0  0  0  0  0  0  0  0  0  0  0
    2.9330  -50.7477  -26.2954 C   0  0  0  0  0  0  0  0  0  0  0  0
    1.9423  -51.6366  -25.8581 C   0  0  0  0  0  0  0  0  0  0  0  0
    1.3868  -52.8535  -26.9716 S   0  0  0  0  0  0  0  0  0  0  0  0
    2.4581  -53.3546  -27.9055 O   0  0  0  0  0  0  0  0  0  0  0  0
    1.0242  -54.1147  -26.1357 O   0  0  0  0  0  0  0  0  0  0  0  0
   -0.0167  -52.3820  -27.9125 C   0  0  0  0  0  0  0  0  0  0  0  0
   -1.2468  -52.8370  -27.0793 C   0  0  0  0  0  0  0  0  0  0  0  0
   -0.1816  -52.9863  -29.2498 C   0  0  0  0  0  0  0  0  0  0  0  0
 24 25  1  0  0  0
 25 10  1  0  0  0
 10 11  2  0  0  0
 11 12  1  0  0  0
 12 13  2  0  0  0
 13 14  1  0  0  0
 14 15  2  0  0  0
 15  8  1  0  0  0
  8  1  1  0  0  0
  1  2  2  0  0  0
  2  3  1  0  0  0
  3  4  2  0  0  0
  4  5  1  0  0  0
  4  6  1  0  0  0
  6 26  1  0  0  0
 26 28  1  0  0  0
 28 29  2  0  0  0
 29 30  1  0  0  0
 30 31  2  0  0  0
 31 32  1  0  0  0
 32 33  2  0  0  0
 33 34  1  0  0  0
 34 35  2  0  0  0
 34 36  2  0  0  0
 34 37  1  0  0  0
 37 38  1  0  0  0
 37 39  1  0  0  0
  6  7  2  0  0  0
 12 16  1  0  0  0
 16 17  1  0  0  0
 17 18  1  0  0  0
 18 19  1  0  0  0
 19 20  1  0  0  0
 19 21  1  0  0  0
 19 22  1  0  0  0
 22 23  1  0  0  0
 15 10  1  0  0  0
  7  1  1  0  0  0
 23 16  1  0  0  0
 33 28  1  0  0  0
  8  9  1  0  0  0
 26 27  1  0  0  0
M  END
> <minimizedAffinity>
-7.60409

> <CNNscore>
0.1128028184

> <CNNaffinity>
7.0914354324

> <CNN_VS>
0.7999339104

> <CNNaffinity_variance>
0.1196464747

$$$$
[H]c1nc(N([H])c2c([H])c([H])c(N3C([H])([H])C([H])([H])C(C([H])([H])[H])(C([H])([H])[H])C([H])([H])C3([H])[H])c([H])c2OC([H])([H])[H])nc(N([H])c2c([H])c([H])c([H])c([H])c2S(=O)(=O)C([H])(C([H])([H])[H])C([H])([H])[H])c1Cl


 39 42  0  0  0  0  0  0  0  0999 V2000
    3.0149  -50.5702  -20.5408 C   0  0  0  0  0  0  0  0  0  0  0  0
    4.3173  -50.6622  -20.8205 N   0  0  0  0  0  0  0  0  0  0  0  0
    4.7839  -51.2313  -21.9217 C   0  0  0  0  0  0  0  0  0  0  0  0
    3.9326  -51.7683  -22.8538 C   0  0  0  0  0  0  0  0  0  0  0  0
    4.5170  -52.5339  -24.3058 Cl  0  0  0  0  0  0  0  0  0  0  0  0
    2.5430  -51.6873  -22.5883 C   0  0  0  0  0  0  0  0  0  0  0  0
    2.1850  -51.1042  -21.4697 N   0  0  0  0  0  0  0  0  0  0  0  0
    2.4665  -49.9755  -19.3837 N   0  0  0  0  0  0  0  0  0  0  0  0
    2.9447  -49.0493  -19.1087 H   0  0  0  0  0  0  0  0  0  0  0  0
    1.0804  -49.7475  -17.4599 C   0  0  0  0  0  0  0  0  0  0  0  0
    0.0594  -50.1492  -16.6353 C   0  0  0  0  0  0  0  0  0  0  0  0
   -0.7113  -51.2791  -16.8715 C   0  0  0  0  0  0  0  0  0  0  0  0
   -0.3895  -51.9861  -17.9974 C   0  0  0  0  0  0  0  0  0  0  0  0
    0.6555  -51.5781  -18.8453 C   0  0  0  0  0  0  0  0  0  0  0  0
    1.4126  -50.4700  -18.6150 C   0  0  0  0  0  0  0  0  0  0  0  0
   -1.7401  -51.6655  -15.9888 N   0  0  0  0  0  0  0  0  0  0  0  0
   -1.6506  -51.3513  -14.5825 C   0  0  0  0  0  0  0  0  0  0  0  0
   -2.7522  -50.3864  -14.2214 C   0  0  0  0  0  0  0  0  0  0  0  0
   -4.1002  -50.8516  -14.7121 C   0  0  0  0  0  0  0  0  0  0  0  0
   -4.6876  -51.7894  -13.6522 C   0  0  0  0  0  0  0  0  0  0  0  0
   -5.0044  -49.6312  -14.7345 C   0  0  0  0  0  0  0  0  0  0  0  0
   -4.1057  -51.4569  -16.0641 C   0  0  0  0  0  0  0  0  0  0  0  0
   -2.9441  -52.3659  -16.3828 C   0  0  0  0  0  0  0  0  0  0  0  0
    2.4093  -48.4868  -15.9078 C   0  0  0  0  0  0  0  0  0  0  0  0
    1.8051  -48.6120  -17.1617 O   0  0  0  0  0  0  0  0  0  0  0  0
    1.6725  -52.1992  -23.5736 N   0  0  0  0  0  0  0  0  0  0  0  0
    1.8558  -51.9128  -24.5754 H   0  0  0  0  0  0  0  0  0  0  0  0
    0.6049  -53.0793  -23.3776 C   0  0  0  0  0  0  0  0  0  0  0  0
    0.1020  -53.2533  -22.0869 C   0  0  0  0  0  0  0  0  0  0  0  0
   -0.8616  -54.2119  -21.8601 C   0  0  0  0  0  0  0  0  0  0  0  0
   -1.3534  -55.0109  -22.8520 C   0  0  0  0  0  0  0  0  0  0  0  0
   -0.8569  -54.8335  -24.1101 C   0  0  0  0  0  0  0  0  0  0  0  0
    0.1215  -53.8723  -24.3959 C   0  0  0  0  0  0  0  0  0  0  0  0
    0.5943  -53.6562  -26.0571 S   0  0  0  0  0  0  0  0  0  0  0  0
    2.0802  -53.4921  -26.2475 O   0  0  0  0  0  0  0  0  0  0  0  0
    0.2840  -54.9859  -26.8030 O   0  0  0  0  0  0  0  0  0  0  0  0
   -0.2352  -52.3463  -26.8775 C   0  0  0  0  0  0  0  0  0  0  0  0
   -1.4142  -51.9532  -25.9450 C   0  0  0  0  0  0  0  0  0  0  0  0
   -0.8340  -52.6321  -28.1968 C   0  0  0  0  0  0  0  0  0  0  0  0
 24 25  1  0  0  0
 25 10  1  0  0  0
 10 11  2  0  0  0
 11 12  1  0  0  0
 12 13  2  0  0  0
 13 14  1  0  0  0
 14 15  2  0  0  0
 15  8  1  0  0  0
  8  1  1  0  0  0
  1  2  2  0  0  0
  2  3  1  0  0  0
  3  4  2  0  0  0
  4  5  1  0  0  0
  4  6  1  0  0  0
  6 26  1  0  0  0
 26 28  1  0  0  0
 28 29  2  0  0  0
 29 30  1  0  0  0
 30 31  2  0  0  0
 31 32  1  0  0  0
 32 33  2  0  0  0
 33 34  1  0  0  0
 34 35  2  0  0  0
 34 36  2  0  0  0
 34 37  1  0  0  0
 37 38  1  0  0  0
 37 39  1  0  0  0
  6  7  2  0  0  0
 12 16  1  0  0  0
 16 17  1  0  0  0
 17 18  1  0  0  0
 18 19  1  0  0  0
 19 20  1  0  0  0
 19 21  1  0  0  0
 19 22  1  0  0  0
 22 23  1  0  0  0
 15 10  1  0  0  0
  7  1  1  0  0  0
 23 16  1  0  0  0
 33 28  1  0  0  0
  8  9  1  0  0  0
 26 27  1  0  0  0
M  END
> <minimizedAffinity>
-9.19734

> <CNNscore>
0.0750464723

> <CNNaffinity>
6.8477072716

> <CNN_VS>
0.5138962865

> <CNNaffinity_variance>
0.3419917226

$$$$
[H]c1nc(N([H])c2c([H])c([H])c(N3C([H])([H])C([H])([H])C(C([H])([H])[H])(C([H])([H])[H])C([H])([H])C3([H])[H])c([H])c2OC([H])([H])[H])nc(N([H])c2c([H])c([H])c([H])c([H])c2S(=O)(=O)C([H])(C([H])([H])[H])C([H])([H])[H])c1Cl


 39 42  0  0  0  0  0  0  0  0999 V2000
    0.7017  -52.0738  -20.1322 C   0  0  0  0  0  0  0  0  0  0  0  0
   -0.1840  -52.9320  -19.6204 N   0  0  0  0  0  0  0  0  0  0  0  0
   -0.8493  -53.8111  -20.3544 C   0  0  0  0  0  0  0  0  0  0  0  0
   -0.6581  -53.8867  -21.7108 C   0  0  0  0  0  0  0  0  0  0  0  0
   -1.5274  -55.0241  -22.7040 Cl  0  0  0  0  0  0  0  0  0  0  0  0
    0.2758  -52.9899  -22.2867 C   0  0  0  0  0  0  0  0  0  0  0  0
    0.8813  -52.1592  -21.4727 N   0  0  0  0  0  0  0  0  0  0  0  0
    1.4355  -51.1188  -19.3955 N   0  0  0  0  0  0  0  0  0  0  0  0
    0.9753  -50.8533  -18.4575 H   0  0  0  0  0  0  0  0  0  0  0  0
    2.5862  -49.1922  -20.1947 C   0  0  0  0  0  0  0  0  0  0  0  0
    3.7168  -48.5189  -20.5849 C   0  0  0  0  0  0  0  0  0  0  0  0
    4.9808  -49.0920  -20.5923 C   0  0  0  0  0  0  0  0  0  0  0  0
    5.0386  -50.3949  -20.1796 C   0  0  0  0  0  0  0  0  0  0  0  0
    3.8831  -51.0886  -19.7787 C   0  0  0  0  0  0  0  0  0  0  0  0
    2.6422  -50.5279  -19.7709 C   0  0  0  0  0  0  0  0  0  0  0  0
    6.1139  -48.3691  -21.0173 N   0  0  0  0  0  0  0  0  0  0  0  0
    6.7842  -48.7208  -22.2466 C   0  0  0  0  0  0  0  0  0  0  0  0
    6.6435  -47.5842  -23.2281 C   0  0  0  0  0  0  0  0  0  0  0  0
    7.0251  -46.2574  -22.6212 C   0  0  0  0  0  0  0  0  0  0  0  0
    8.5407  -46.0904  -22.7725 C   0  0  0  0  0  0  0  0  0  0  0  0
    6.3993  -45.1806  -23.4909 C   0  0  0  0  0  0  0  0  0  0  0  0
    6.5723  -46.0473  -21.2265 C   0  0  0  0  0  0  0  0  0  0  0  0
    6.6846  -47.2417  -20.3113 C   0  0  0  0  0  0  0  0  0  0  0  0
    0.7507  -48.2688  -21.4367 C   0  0  0  0  0  0  0  0  0  0  0  0
    1.3613  -48.5576  -20.2133 O   0  0  0  0  0  0  0  0  0  0  0  0
    0.5019  -53.1058  -23.6745 N   0  0  0  0  0  0  0  0  0  0  0  0
   -0.3371  -53.3140  -24.2845 H   0  0  0  0  0  0  0  0  0  0  0  0
    1.7164  -52.9403  -24.3456 C   0  0  0  0  0  0  0  0  0  0  0  0
    2.8404  -52.5438  -23.6187 C   0  0  0  0  0  0  0  0  0  0  0  0
    4.0097  -52.2523  -24.2870 C   0  0  0  0  0  0  0  0  0  0  0  0
    4.1214  -52.3333  -25.6454 C   0  0  0  0  0  0  0  0  0  0  0  0
    3.0185  -52.7223  -26.3475 C   0  0  0  0  0  0  0  0  0  0  0  0
    1.8060  -53.0323  -25.7178 C   0  0  0  0  0  0  0  0  0  0  0  0
    0.5020  -53.6293  -26.7042 S   0  0  0  0  0  0  0  0  0  0  0  0
    0.9551  -54.5151  -27.8361 O   0  0  0  0  0  0  0  0  0  0  0  0
   -0.3462  -54.5875  -25.8193 O   0  0  0  0  0  0  0  0  0  0  0  0
   -0.5489  -52.3783  -27.3429 C   0  0  0  0  0  0  0  0  0  0  0  0
   -1.5935  -52.1037  -26.2260 C   0  0  0  0  0  0  0  0  0  0  0  0
   -1.3238  -52.6883  -28.5613 C   0  0  0  0  0  0  0  0  0  0  0  0
 24 25  1  0  0  0
 25 10  1  0  0  0
 10 11  2  0  0  0
 11 12  1  0  0  0
 12 13  2  0  0  0
 13 14  1  0  0  0
 14 15  2  0  0  0
 15  8  1  0  0  0
  8  1  1  0  0  0
  1  2  2  0  0  0
  2  3  1  0  0  0
  3  4  2  0  0  0
  4  5  1  0  0  0
  4  6  1  0  0  0
  6 26  1  0  0  0
 26 28  1  0  0  0
 28 29  2  0  0  0
 29 30  1  0  0  0
 30 31  2  0  0  0
 31 32  1  0  0  0
 32 33  2  0  0  0
 33 34  1  0  0  0
 34 35  2  0  0  0
 34 36  2  0  0  0
 34 37  1  0  0  0
 37 38  1  0  0  0
 37 39  1  0  0  0
  6  7  2  0  0  0
 12 16  1  0  0  0
 16 17  1  0  0  0
 17 18  1  0  0  0
 18 19  1  0  0  0
 19 20  1  0  0  0
 19 21  1  0  0  0
 19 22  1  0  0  0
 22 23  1  0  0  0
 15 10  1  0  0  0
  7  1  1  0  0  0
 23 16  1  0  0  0
 33 28  1  0  0  0
  8  9  1  0  0  0
 26 27  1  0  0  0
M  END
> <minimizedAffinity>
-7.45048

> <CNNscore>
0.0502654240

> <CNNaffinity>
7.0742087364

> <CNN_VS>
0.3555881083

> <CNNaffinity_variance>
0.1621839553

$$$$
[H]c1nc(N([H])c2c([H])c([H])c(N3C([H])([H])C([H])([H])C(C([H])([H])[H])(C([H])([H])[H])C([H])([H])C3([H])[H])c([H])c2OC([H])([H])[H])nc(N([H])c2c([H])c([H])c([H])c([H])c2S(=O)(=O)C([H])(C([H])([H])[H])C([H])([H])[H])c1Cl


 39 42  0  0  0  0  0  0  0  0999 V2000
    0.4979  -52.2827  -23.8761 C   0  0  0  0  0  0  0  0  0  0  0  0
    0.0783  -52.9292  -24.9664 N   0  0  0  0  0  0  0  0  0  0  0  0
    0.8356  -53.1110  -26.0378 C   0  0  0  0  0  0  0  0  0  0  0  0
    2.1206  -52.6329  -26.0833 C   0  0  0  0  0  0  0  0  0  0  0  0
    3.1364  -52.8459  -27.4828 Cl  0  0  0  0  0  0  0  0  0  0  0  0
    2.5980  -51.9418  -24.9419 C   0  0  0  0  0  0  0  0  0  0  0  0
    1.7688  -51.8158  -23.9339 N   0  0  0  0  0  0  0  0  0  0  0  0
   -0.2677  -52.0617  -22.7105 N   0  0  0  0  0  0  0  0  0  0  0  0
   -1.2726  -52.4463  -22.7770 H   0  0  0  0  0  0  0  0  0  0  0  0
    0.1327  -52.1734  -20.3650 C   0  0  0  0  0  0  0  0  0  0  0  0
    0.5299  -51.6352  -19.1665 C   0  0  0  0  0  0  0  0  0  0  0  0
    0.9776  -50.3287  -19.0288 C   0  0  0  0  0  0  0  0  0  0  0  0
    1.0017  -49.5904  -20.1801 C   0  0  0  0  0  0  0  0  0  0  0  0
    0.5959  -50.1377  -21.4103 C   0  0  0  0  0  0  0  0  0  0  0  0
    0.1564  -51.4192  -21.5471 C   0  0  0  0  0  0  0  0  0  0  0  0
    1.3602  -49.8105  -17.7750 N   0  0  0  0  0  0  0  0  0  0  0  0
    0.4821  -49.9351  -16.6358 C   0  0  0  0  0  0  0  0  0  0  0  0
    1.1330  -50.8244  -15.6061 C   0  0  0  0  0  0  0  0  0  0  0  0
    2.5509  -50.4064  -15.3074 C   0  0  0  0  0  0  0  0  0  0  0  0
    2.5032  -49.3256  -14.2224 C   0  0  0  0  0  0  0  0  0  0  0  0
    3.2369  -51.6036  -14.6718 C   0  0  0  0  0  0  0  0  0  0  0  0
    3.3470  -49.9875  -16.4843 C   0  0  0  0  0  0  0  0  0  0  0  0
    2.6194  -49.1490  -17.5062 C   0  0  0  0  0  0  0  0  0  0  0  0
   -1.6458  -53.7760  -20.1830 C   0  0  0  0  0  0  0  0  0  0  0  0
   -0.3015  -53.4815  -20.4265 O   0  0  0  0  0  0  0  0  0  0  0  0
    3.9357  -51.4947  -24.9778 N   0  0  0  0  0  0  0  0  0  0  0  0
    4.4603  -51.6144  -25.8888 H   0  0  0  0  0  0  0  0  0  0  0  0
    4.6428  -50.8731  -23.9452 C   0  0  0  0  0  0  0  0  0  0  0  0
    5.0733  -51.6432  -22.8632 C   0  0  0  0  0  0  0  0  0  0  0  0
    5.6563  -51.0217  -21.7803 C   0  0  0  0  0  0  0  0  0  0  0  0
    5.8341  -49.6695  -21.7148 C   0  0  0  0  0  0  0  0  0  0  0  0
    5.4112  -48.9250  -22.7767 C   0  0  0  0  0  0  0  0  0  0  0  0
    4.8144  -49.5062  -23.9032 C   0  0  0  0  0  0  0  0  0  0  0  0
    4.4216  -48.4706  -25.2459 S   0  0  0  0  0  0  0  0  0  0  0  0
    5.0844  -48.8754  -26.5374 O   0  0  0  0  0  0  0  0  0  0  0  0
    2.9070  -48.6594  -25.5481 O   0  0  0  0  0  0  0  0  0  0  0  0
    4.7275  -46.7679  -24.9557 C   0  0  0  0  0  0  0  0  0  0  0  0
    3.3353  -46.1385  -24.6726 C   0  0  0  0  0  0  0  0  0  0  0  0
    5.3176  -45.9789  -26.0558 C   0  0  0  0  0  0  0  0  0  0  0  0
 24 25  1  0  0  0
 25 10  1  0  0  0
 10 11  2  0  0  0
 11 12  1  0  0  0
 12 13  2  0  0  0
 13 14  1  0  0  0
 14 15  2  0  0  0
 15  8  1  0  0  0
  8  1  1  0  0  0
  1  2  2  0  0  0
  2  3  1  0  0  0
  3  4  2  0  0  0
  4  5  1  0  0  0
  4  6  1  0  0  0
  6 26  1  0  0  0
 26 28  1  0  0  0
 28 29  2  0  0  0
 29 30  1  0  0  0
 30 31  2  0  0  0
 31 32  1  0  0  0
 32 33  2  0  0  0
 33 34  1  0  0  0
 34 35  2  0  0  0
 34 36  2  0  0  0
 34 37  1  0  0  0
 37 38  1  0  0  0
 37 39  1  0  0  0
  6  7  2  0  0  0
 12 16  1  0  0  0
 16 17  1  0  0  0
 17 18  1  0  0  0
 18 19  1  0  0  0
 19 20  1  0  0  0
 19 21  1  0  0  0
 19 22  1  0  0  0
 22 23  1  0  0  0
 15 10  1  0  0  0
  7  1  1  0  0  0
 23 16  1  0  0  0
 33 28  1  0  0  0
  8  9  1  0  0  0
 26 27  1  0  0  0
M  END
> <minimizedAffinity>
-6.67972

> <CNNscore>
0.0432229973

> <CNNaffinity>
6.6858887672

> <CNN_VS>
0.2889841497

> <CNNaffinity_variance>
0.3609361053

$$$$
[H]c1nc(N([H])c2c([H])c([H])c(N3C([H])([H])C([H])([H])C([H])([H])[C@]([H])(N4C([H])([H])C([H])([H])OC([H])([H])C4([H])[H])C3([H])[H])c([H])c2OC([H])([H])[H])nc(N([H])c2c([H])c([H])c([H])c([H])c2S(=O)(=O)C(C([H])([H])[H])(C([H])([H])[H])C([H])([H])[H])c1Cl


 44 48  0  0  0  0  0  0  0  0999 V2000
   -0.7882  -53.2957  -18.5782 N   0  0  0  0  0  0  0  0  0  0  0  0
   -0.9052  -54.3173  -18.2006 H   0  0  0  0  0  0  0  0  0  0  0  0
   -0.6901  -53.2455  -19.9767 C   0  0  0  0  0  0  0  0  0  0  0  0
   -1.3702  -54.2305  -20.6854 N   0  0  0  0  0  0  0  0  0  0  0  0
   -1.3503  -54.2942  -21.9999 C   0  0  0  0  0  0  0  0  0  0  0  0
   -0.6449  -53.3730  -22.6972 C   0  0  0  0  0  0  0  0  0  0  0  0
   -0.6109  -53.4392  -24.4612 Cl  0  0  0  0  0  0  0  0  0  0  0  0
    0.0684  -52.3475  -22.0411 C   0  0  0  0  0  0  0  0  0  0  0  0
   -0.0205  -52.3763  -20.7062 N   0  0  0  0  0  0  0  0  0  0  0  0
    0.8408  -51.4841  -22.8328 N   0  0  0  0  0  0  0  0  0  0  0  0
    0.3032  -50.6368  -23.2003 H   0  0  0  0  0  0  0  0  0  0  0  0
    2.1769  -51.6012  -23.2159 C   0  0  0  0  0  0  0  0  0  0  0  0
    2.6335  -52.6127  -24.0630 C   0  0  0  0  0  0  0  0  0  0  0  0
    3.9317  -52.7518  -24.4773 C   0  0  0  0  0  0  0  0  0  0  0  0
    4.8557  -51.8389  -24.0324 C   0  0  0  0  0  0  0  0  0  0  0  0
    4.4350  -50.8414  -23.1985 C   0  0  0  0  0  0  0  0  0  0  0  0
    3.1122  -50.6768  -22.7587 C   0  0  0  0  0  0  0  0  0  0  0  0
    2.7375  -49.4446  -21.6115 S   0  0  0  0  0  0  0  0  0  0  0  0
    1.2877  -48.9812  -21.6706 O   0  0  0  0  0  0  0  0  0  0  0  0
    3.4880  -48.1833  -22.1280 O   0  0  0  0  0  0  0  0  0  0  0  0
    3.3256  -49.6798  -19.9861 C   0  0  0  0  0  0  0  0  0  0  0  0
    3.2635  -51.0522  -19.4195 C   0  0  0  0  0  0  0  0  0  0  0  0
    4.7375  -49.0744  -19.8059 C   0  0  0  0  0  0  0  0  0  0  0  0
    2.4719  -48.8137  -19.0137 C   0  0  0  0  0  0  0  0  0  0  0  0
   -1.8424  -52.1501  -16.7520 C   0  0  0  0  0  0  0  0  0  0  0  0
   -1.8852  -51.1649  -15.7909 C   0  0  0  0  0  0  0  0  0  0  0  0
   -0.8847  -50.2375  -15.6405 C   0  0  0  0  0  0  0  0  0  0  0  0
    0.1913  -50.3215  -16.4960 C   0  0  0  0  0  0  0  0  0  0  0  0
    0.2262  -51.3266  -17.4666 C   0  0  0  0  0  0  0  0  0  0  0  0
   -0.7535  -52.2610  -17.6432 C   0  0  0  0  0  0  0  0  0  0  0  0
   -0.9369  -49.2245  -14.6429 N   0  0  0  0  0  0  0  0  0  0  0  0
   -1.6329  -49.5150  -13.4072 C   0  0  0  0  0  0  0  0  0  0  0  0
   -2.6880  -48.4037  -13.2983 C   0  0  0  0  0  0  0  0  0  0  0  0
   -1.9463  -47.1168  -13.0975 C   0  0  0  0  0  0  0  0  0  0  0  0
   -0.5325  -47.1074  -13.5929 C   0  0  0  0  0  0  0  0  0  0  0  0
   -0.3482  -47.9176  -14.8347 C   0  0  0  0  0  0  0  0  0  0  0  0
   -0.1191  -45.7664  -13.7166 N   0  0  0  0  0  0  0  0  0  0  0  0
    1.0555  -45.3291  -13.0835 C   0  0  0  0  0  0  0  0  0  0  0  0
    2.0387  -44.8566  -14.1602 C   0  0  0  0  0  0  0  0  0  0  0  0
    1.4317  -44.8133  -15.4212 O   0  0  0  0  0  0  0  0  0  0  0  0
    0.2251  -44.1077  -15.3748 C   0  0  0  0  0  0  0  0  0  0  0  0
   -0.8007  -44.8667  -14.5311 C   0  0  0  0  0  0  0  0  0  0  0  0
   -4.1026  -52.8261  -16.1960 C   0  0  0  0  0  0  0  0  0  0  0  0
   -2.8746  -53.0664  -16.8706 O   0  0  0  0  0  0  0  0  0  0  0  0
 43 44  1  0  0  0
 44 25  1  0  0  0
 25 26  2  0  0  0
 26 27  1  0  0  0
 27 28  2  0  0  0
 28 29  1  0  0  0
 29 30  2  0  0  0
 30  1  1  0  0  0
  1  3  1  0  0  0
  3  4  2  0  0  0
  4  5  1  0  0  0
  5  6  2  0  0  0
  6  7  1  0  0  0
  6  8  1  0  0  0
  8 10  1  0  0  0
 10 12  1  0  0  0
 12 13  2  0  0  0
 13 14  1  0  0  0
 14 15  2  0  0  0
 15 16  1  0  0  0
 16 17  2  0  0  0
 17 18  1  0  0  0
 18 19  2  0  0  0
 18 20  2  0  0  0
 18 21  1  0  0  0
 21 22  1  0  0  0
 21 23  1  0  0  0
 21 24  1  0  0  0
  8  9  2  0  0  0
 27 31  1  0  0  0
 31 32  1  0  0  0
 32 33  1  0  0  0
 33 34  1  0  0  0
 34 35  1  0  0  0
 35 36  1  0  0  0
 35 37  1  0  0  0
 37 38  1  0  0  0
 38 39  1  0  0  0
 39 40  1  0  0  0
 40 41  1  0  0  0
 41 42  1  0  0  0
 30 25  1  0  0  0
  9  3  1  0  0  0
 36 31  1  0  0  0
 42 37  1  0  0  0
 17 12  1  0  0  0
  1  2  1  0  0  0
 10 11  1  0  0  0
M  END
> <minimizedAffinity>
-7.59654

> <CNNscore>
0.6151053905

> <CNNaffinity>
7.6522874832

> <CNN_VS>
4.7069630623

> <CNNaffinity_variance>
0.0852524787

$$$$
[H]c1nc(N([H])c2c([H])c([H])c(N3C([H])([H])C([H])([H])C([H])([H])[C@]([H])(N4C([H])([H])C([H])([H])OC([H])([H])C4([H])[H])C3([H])[H])c([H])c2OC([H])([H])[H])nc(N([H])c2c([H])c([H])c([H])c([H])c2S(=O)(=O)C(C([H])([H])[H])(C([H])([H])[H])C([H])([H])[H])c1Cl


 44 48  0  0  0  0  0  0  0  0999 V2000
    0.5886  -53.3397  -23.2133 N   0  0  0  0  0  0  0  0  0  0  0  0
    0.2696  -54.2290  -23.7677 H   0  0  0  0  0  0  0  0  0  0  0  0
    0.0704  -53.3018  -21.9101 C   0  0  0  0  0  0  0  0  0  0  0  0
   -1.2559  -53.6914  -21.7547 N   0  0  0  0  0  0  0  0  0  0  0  0
   -1.8576  -53.6931  -20.5842 C   0  0  0  0  0  0  0  0  0  0  0  0
   -1.1703  -53.3028  -19.4853 C   0  0  0  0  0  0  0  0  0  0  0  0
   -1.9592  -53.3038  -17.9058 Cl  0  0  0  0  0  0  0  0  0  0  0  0
    0.1777  -52.8948  -19.5721 C   0  0  0  0  0  0  0  0  0  0  0  0
    0.6900  -52.9319  -20.8078 N   0  0  0  0  0  0  0  0  0  0  0  0
    0.7917  -52.4266  -18.4006 N   0  0  0  0  0  0  0  0  0  0  0  0
    1.5019  -53.1070  -17.9826 H   0  0  0  0  0  0  0  0  0  0  0  0
    0.5791  -51.2317  -17.7131 C   0  0  0  0  0  0  0  0  0  0  0  0
   -0.5351  -51.0168  -16.8996 C   0  0  0  0  0  0  0  0  0  0  0  0
   -0.7714  -49.8666  -16.1941 C   0  0  0  0  0  0  0  0  0  0  0  0
    0.1445  -48.8482  -16.2886 C   0  0  0  0  0  0  0  0  0  0  0  0
    1.2418  -49.0319  -17.0820 C   0  0  0  0  0  0  0  0  0  0  0  0
    1.5072  -50.1990  -17.8153 C   0  0  0  0  0  0  0  0  0  0  0  0
    2.8692  -50.2562  -18.8719 S   0  0  0  0  0  0  0  0  0  0  0  0
    3.3706  -51.6694  -19.1394 O   0  0  0  0  0  0  0  0  0  0  0  0
    4.0410  -49.6635  -18.0375 O   0  0  0  0  0  0  0  0  0  0  0  0
    2.7940  -49.2634  -20.3043 C   0  0  0  0  0  0  0  0  0  0  0  0
    2.6543  -47.7952  -20.1221 C   0  0  0  0  0  0  0  0  0  0  0  0
    3.9533  -49.5887  -21.2753 C   0  0  0  0  0  0  0  0  0  0  0  0
    1.5446  -49.6773  -21.1364 C   0  0  0  0  0  0  0  0  0  0  0  0
    0.8289  -51.5962  -24.8446 C   0  0  0  0  0  0  0  0  0  0  0  0
    1.5713  -50.6640  -25.5344 C   0  0  0  0  0  0  0  0  0  0  0  0
    2.9162  -50.4897  -25.3232 C   0  0  0  0  0  0  0  0  0  0  0  0
    3.5184  -51.2902  -24.3781 C   0  0  0  0  0  0  0  0  0  0  0  0
    2.7554  -52.2318  -23.6818 C   0  0  0  0  0  0  0  0  0  0  0  0
    1.4180  -52.4311  -23.8709 C   0  0  0  0  0  0  0  0  0  0  0  0
    3.6745  -49.5221  -26.0393 N   0  0  0  0  0  0  0  0  0  0  0  0
    4.3880  -48.5145  -25.2835 C   0  0  0  0  0  0  0  0  0  0  0  0
    3.8629  -47.1826  -25.8407 C   0  0  0  0  0  0  0  0  0  0  0  0
    4.3339  -47.0883  -27.2604 C   0  0  0  0  0  0  0  0  0  0  0  0
    4.6417  -48.3965  -27.9224 C   0  0  0  0  0  0  0  0  0  0  0  0
    3.7301  -49.4962  -27.4842 C   0  0  0  0  0  0  0  0  0  0  0  0
    4.6625  -48.1899  -29.3157 N   0  0  0  0  0  0  0  0  0  0  0  0
    3.9795  -47.0991  -29.8773 C   0  0  0  0  0  0  0  0  0  0  0  0
    5.0026  -46.1916  -30.5694 C   0  0  0  0  0  0  0  0  0  0  0  0
    6.2677  -46.7898  -30.6128 O   0  0  0  0  0  0  0  0  0  0  0  0
    6.1925  -48.0895  -31.1236 C   0  0  0  0  0  0  0  0  0  0  0  0
    5.4229  -48.9943  -30.1596 C   0  0  0  0  0  0  0  0  0  0  0  0
   -0.9594  -52.2637  -26.3384 C   0  0  0  0  0  0  0  0  0  0  0  0
   -0.5271  -51.7405  -25.0892 O   0  0  0  0  0  0  0  0  0  0  0  0
 43 44  1  0  0  0
 44 25  1  0  0  0
 25 26  2  0  0  0
 26 27  1  0  0  0
 27 28  2  0  0  0
 28 29  1  0  0  0
 29 30  2  0  0  0
 30  1  1  0  0  0
  1  3  1  0  0  0
  3  4  2  0  0  0
  4  5  1  0  0  0
  5  6  2  0  0  0
  6  7  1  0  0  0
  6  8  1  0  0  0
  8 10  1  0  0  0
 10 12  1  0  0  0
 12 13  2  0  0  0
 13 14  1  0  0  0
 14 15  2  0  0  0
 15 16  1  0  0  0
 16 17  2  0  0  0
 17 18  1  0  0  0
 18 19  2  0  0  0
 18 20  2  0  0  0
 18 21  1  0  0  0
 21 22  1  0  0  0
 21 23  1  0  0  0
 21 24  1  0  0  0
  8  9  2  0  0  0
 27 31  1  0  0  0
 31 32  1  0  0  0
 32 33  1  0  0  0
 33 34  1  0  0  0
 34 35  1  0  0  0
 35 36  1  0  0  0
 35 37  1  0  0  0
 37 38  1  0  0  0
 38 39  1  0  0  0
 39 40  1  0  0  0
 40 41  1  0  0  0
 41 42  1  0  0  0
 30 25  1  0  0  0
  9  3  1  0  0  0
 36 31  1  0  0  0
 42 37  1  0  0  0
 17 12  1  0  0  0
  1  2  1  0  0  0
 10 11  1  0  0  0
M  END
> <minimizedAffinity>
-7.37210

> <CNNscore>
0.2922880352

> <CNNaffinity>
7.4104027748

> <CNN_VS>
2.1659719944

> <CNNaffinity_variance>
0.3632648885

$$$$
[H]c1nc(N([H])c2c([H])c([H])c(N3C([H])([H])C([H])([H])C([H])([H])[C@]([H])(N4C([H])([H])C([H])([H])OC([H])([H])C4([H])[H])C3([H])[H])c([H])c2OC([H])([H])[H])nc(N([H])c2c([H])c([H])c([H])c([H])c2S(=O)(=O)C(C([H])([H])[H])(C([H])([H])[H])C([H])([H])[H])c1Cl


 44 48  0  0  0  0  0  0  0  0999 V2000
   -0.9718  -53.4846  -18.7844 N   0  0  0  0  0  0  0  0  0  0  0  0
   -1.4361  -54.4768  -18.7943 H   0  0  0  0  0  0  0  0  0  0  0  0
   -1.2261  -52.7820  -17.5971 C   0  0  0  0  0  0  0  0  0  0  0  0
   -2.5466  -52.7522  -17.1606 N   0  0  0  0  0  0  0  0  0  0  0  0
   -2.9129  -52.1209  -16.0653 C   0  0  0  0  0  0  0  0  0  0  0  0
   -1.9789  -51.4736  -15.3298 C   0  0  0  0  0  0  0  0  0  0  0  0
   -2.4507  -50.6260  -13.8546 Cl  0  0  0  0  0  0  0  0  0  0  0  0
   -0.6218  -51.4633  -15.7158 C   0  0  0  0  0  0  0  0  0  0  0  0
   -0.3605  -52.1355  -16.8430 N   0  0  0  0  0  0  0  0  0  0  0  0
    0.2675  -50.7001  -14.9442 N   0  0  0  0  0  0  0  0  0  0  0  0
    0.0040  -49.6666  -14.8760 H   0  0  0  0  0  0  0  0  0  0  0  0
    1.4361  -51.0998  -14.2959 C   0  0  0  0  0  0  0  0  0  0  0  0
    1.4680  -52.1509  -13.3775 C   0  0  0  0  0  0  0  0  0  0  0  0
    2.5963  -52.5859  -12.7339 C   0  0  0  0  0  0  0  0  0  0  0  0
    3.7825  -51.9491  -13.0028 C   0  0  0  0  0  0  0  0  0  0  0  0
    3.7773  -50.9141  -13.8950 C   0  0  0  0  0  0  0  0  0  0  0  0
    2.6362  -50.4485  -14.5670 C   0  0  0  0  0  0  0  0  0  0  0  0
    2.7459  -49.0557  -15.5785 S   0  0  0  0  0  0  0  0  0  0  0  0
    3.8267  -48.0742  -15.1444 O   0  0  0  0  0  0  0  0  0  0  0  0
    1.4519  -48.2462  -15.2768 O   0  0  0  0  0  0  0  0  0  0  0  0
    2.7091  -49.3311  -17.3006 C   0  0  0  0  0  0  0  0  0  0  0  0
    1.3990  -49.2147  -17.9922 C   0  0  0  0  0  0  0  0  0  0  0  0
    3.7897  -48.4960  -18.0268 C   0  0  0  0  0  0  0  0  0  0  0  0
    3.1763  -50.7889  -17.5855 C   0  0  0  0  0  0  0  0  0  0  0  0
   -0.6369  -53.6306  -21.1562 C   0  0  0  0  0  0  0  0  0  0  0  0
    0.0224  -53.2981  -22.3184 C   0  0  0  0  0  0  0  0  0  0  0  0
    1.0955  -52.4428  -22.3386 C   0  0  0  0  0  0  0  0  0  0  0  0
    1.5047  -51.9107  -21.1360 C   0  0  0  0  0  0  0  0  0  0  0  0
    0.8273  -52.2528  -19.9623 C   0  0  0  0  0  0  0  0  0  0  0  0
   -0.2405  -53.1020  -19.9089 C   0  0  0  0  0  0  0  0  0  0  0  0
    1.7689  -52.1035  -23.5450 N   0  0  0  0  0  0  0  0  0  0  0  0
    2.9432  -51.2611  -23.4605 C   0  0  0  0  0  0  0  0  0  0  0  0
    2.6195  -50.0697  -24.3750 C   0  0  0  0  0  0  0  0  0  0  0  0
    2.5542  -50.6004  -25.7752 C   0  0  0  0  0  0  0  0  0  0  0  0
    2.2500  -52.0625  -25.8935 C   0  0  0  0  0  0  0  0  0  0  0  0
    1.3046  -52.5446  -24.8417 C   0  0  0  0  0  0  0  0  0  0  0  0
    1.8203  -52.3168  -27.2107 N   0  0  0  0  0  0  0  0  0  0  0  0
    2.7083  -52.8685  -28.1482 C   0  0  0  0  0  0  0  0  0  0  0  0
    2.1567  -54.2264  -28.5968 C   0  0  0  0  0  0  0  0  0  0  0  0
    0.8628  -54.4384  -28.1058 O   0  0  0  0  0  0  0  0  0  0  0  0
    0.0345  -53.3459  -28.3818 C   0  0  0  0  0  0  0  0  0  0  0  0
    0.4978  -52.1176  -27.5963 C   0  0  0  0  0  0  0  0  0  0  0  0
   -2.1013  -55.1005  -22.4091 C   0  0  0  0  0  0  0  0  0  0  0  0
   -1.7158  -54.4993  -21.1799 O   0  0  0  0  0  0  0  0  0  0  0  0
 43 44  1  0  0  0
 44 25  1  0  0  0
 25 26  2  0  0  0
 26 27  1  0  0  0
 27 28  2  0  0  0
 28 29  1  0  0  0
 29 30  2  0  0  0
 30  1  1  0  0  0
  1  3  1  0  0  0
  3  4  2  0  0  0
  4  5  1  0  0  0
  5  6  2  0  0  0
  6  7  1  0  0  0
  6  8  1  0  0  0
  8 10  1  0  0  0
 10 12  1  0  0  0
 12 13  2  0  0  0
 13 14  1  0  0  0
 14 15  2  0  0  0
 15 16  1  0  0  0
 16 17  2  0  0  0
 17 18  1  0  0  0
 18 19  2  0  0  0
 18 20  2  0  0  0
 18 21  1  0  0  0
 21 22  1  0  0  0
 21 23  1  0  0  0
 21 24  1  0  0  0
  8  9  2  0  0  0
 27 31  1  0  0  0
 31 32  1  0  0  0
 32 33  1  0  0  0
 33 34  1  0  0  0
 34 35  1  0  0  0
 35 36  1  0  0  0
 35 37  1  0  0  0
 37 38  1  0  0  0
 38 39  1  0  0  0
 39 40  1  0  0  0
 40 41  1  0  0  0
 41 42  1  0  0  0
 30 25  1  0  0  0
  9  3  1  0  0  0
 36 31  1  0  0  0
 42 37  1  0  0  0
 17 12  1  0  0  0
  1  2  1  0  0  0
 10 11  1  0  0  0
M  END
> <minimizedAffinity>
-7.85625

> <CNNscore>
0.2715122998

> <CNNaffinity>
7.5937204361

> <CNN_VS>
2.0617885590

> <CNNaffinity_variance>
0.0648275614

$$$$
[H]c1nc(N([H])c2c([H])c([H])c(N3C([H])([H])C([H])([H])C([H])([H])[C@]([H])(N4C([H])([H])C([H])([H])OC([H])([H])C4([H])[H])C3([H])[H])c([H])c2OC([H])([H])[H])nc(N([H])c2c([H])c([H])c([H])c([H])c2S(=O)(=O)C(C([H])([H])[H])(C([H])([H])[H])C([H])([H])[H])c1Cl


 44 48  0  0  0  0  0  0  0  0999 V2000
   -0.7568  -53.3180  -19.3588 N   0  0  0  0  0  0  0  0  0  0  0  0
   -1.0567  -54.3707  -19.4015 H   0  0  0  0  0  0  0  0  0  0  0  0
   -0.9984  -52.7388  -18.1040 C   0  0  0  0  0  0  0  0  0  0  0  0
   -2.2667  -52.9265  -17.5643 N   0  0  0  0  0  0  0  0  0  0  0  0
   -2.6173  -52.4278  -16.3978 C   0  0  0  0  0  0  0  0  0  0  0  0
   -1.7190  -51.7038  -15.6897 C   0  0  0  0  0  0  0  0  0  0  0  0
   -2.1696  -51.0316  -14.1206 Cl  0  0  0  0  0  0  0  0  0  0  0  0
   -0.4156  -51.4746  -16.1791 C   0  0  0  0  0  0  0  0  0  0  0  0
   -0.1659  -52.0266  -17.3723 N   0  0  0  0  0  0  0  0  0  0  0  0
    0.4259  -50.6450  -15.4226 N   0  0  0  0  0  0  0  0  0  0  0  0
    0.1922  -49.6051  -15.5004 H   0  0  0  0  0  0  0  0  0  0  0  0
    1.5176  -50.9907  -14.6261 C   0  0  0  0  0  0  0  0  0  0  0  0
    1.4564  -51.9918  -13.6548 C   0  0  0  0  0  0  0  0  0  0  0  0
    2.5089  -52.3736  -12.8656 C   0  0  0  0  0  0  0  0  0  0  0  0
    3.7111  -51.7320  -13.0330 C   0  0  0  0  0  0  0  0  0  0  0  0
    3.7961  -50.7453  -13.9745 C   0  0  0  0  0  0  0  0  0  0  0  0
    2.7338  -50.3345  -14.7949 C   0  0  0  0  0  0  0  0  0  0  0  0
    2.9426  -48.9949  -15.8610 S   0  0  0  0  0  0  0  0  0  0  0  0
    3.9585  -47.9754  -15.3625 O   0  0  0  0  0  0  0  0  0  0  0  0
    1.6152  -48.1910  -15.7491 O   0  0  0  0  0  0  0  0  0  0  0  0
    3.1016  -49.3602  -17.5593 C   0  0  0  0  0  0  0  0  0  0  0  0
    4.1203  -48.6078  -18.3367 C   0  0  0  0  0  0  0  0  0  0  0  0
    3.2435  -50.8822  -17.7962 C   0  0  0  0  0  0  0  0  0  0  0  0
    1.7522  -49.0434  -18.2689 C   0  0  0  0  0  0  0  0  0  0  0  0
   -0.4514  -53.4133  -21.7371 C   0  0  0  0  0  0  0  0  0  0  0  0
    0.0399  -52.9205  -22.9252 C   0  0  0  0  0  0  0  0  0  0  0  0
    0.7864  -51.7709  -22.9942 C   0  0  0  0  0  0  0  0  0  0  0  0
    1.0356  -51.1052  -21.8146 C   0  0  0  0  0  0  0  0  0  0  0  0
    0.5304  -51.6125  -20.6142 C   0  0  0  0  0  0  0  0  0  0  0  0
   -0.2121  -52.7538  -20.5124 C   0  0  0  0  0  0  0  0  0  0  0  0
    1.2879  -51.2682  -24.2271 N   0  0  0  0  0  0  0  0  0  0  0  0
    0.7005  -51.7577  -25.4563 C   0  0  0  0  0  0  0  0  0  0  0  0
    1.8923  -52.3194  -26.2464 C   0  0  0  0  0  0  0  0  0  0  0  0
    2.7650  -51.1549  -26.6050 C   0  0  0  0  0  0  0  0  0  0  0  0
    2.6305  -49.9553  -25.7177 C   0  0  0  0  0  0  0  0  0  0  0  0
    2.3745  -50.3160  -24.2906 C   0  0  0  0  0  0  0  0  0  0  0  0
    3.7621  -49.1383  -25.9086 N   0  0  0  0  0  0  0  0  0  0  0  0
    3.6809  -48.0011  -26.7281 C   0  0  0  0  0  0  0  0  0  0  0  0
    3.9696  -46.7643  -25.8700 C   0  0  0  0  0  0  0  0  0  0  0  0
    4.4118  -47.1232  -24.5910 O   0  0  0  0  0  0  0  0  0  0  0  0
    5.4581  -48.0484  -24.6615 C   0  0  0  0  0  0  0  0  0  0  0  0
    4.9542  -49.3760  -25.2305 C   0  0  0  0  0  0  0  0  0  0  0  0
   -1.4575  -55.2701  -22.9267 C   0  0  0  0  0  0  0  0  0  0  0  0
   -1.2002  -54.5786  -21.7115 O   0  0  0  0  0  0  0  0  0  0  0  0
 43 44  1  0  0  0
 44 25  1  0  0  0
 25 26  2  0  0  0
 26 27  1  0  0  0
 27 28  2  0  0  0
 28 29  1  0  0  0
 29 30  2  0  0  0
 30  1  1  0  0  0
  1  3  1  0  0  0
  3  4  2  0  0  0
  4  5  1  0  0  0
  5  6  2  0  0  0
  6  7  1  0  0  0
  6  8  1  0  0  0
  8 10  1  0  0  0
 10 12  1  0  0  0
 12 13  2  0  0  0
 13 14  1  0  0  0
 14 15  2  0  0  0
 15 16  1  0  0  0
 16 17  2  0  0  0
 17 18  1  0  0  0
 18 19  2  0  0  0
 18 20  2  0  0  0
 18 21  1  0  0  0
 21 22  1  0  0  0
 21 23  1  0  0  0
 21 24  1  0  0  0
  8  9  2  0  0  0
 27 31  1  0  0  0
 31 32  1  0  0  0
 32 33  1  0  0  0
 33 34  1  0  0  0
 34 35  1  0  0  0
 35 36  1  0  0  0
 35 37  1  0  0  0
 37 38  1  0  0  0
 38 39  1  0  0  0
 39 40  1  0  0  0
 40 41  1  0  0  0
 41 42  1  0  0  0
 30 25  1  0  0  0
  9  3  1  0  0  0
 36 31  1  0  0  0
 42 37  1  0  0  0
 17 12  1  0  0  0
  1  2  1  0  0  0
 10 11  1  0  0  0
M  END
> <minimizedAffinity>
-7.65681

> <CNNscore>
0.2389746010

> <CNNaffinity>
7.4013900757

> <CNN_VS>
1.7687442303

> <CNNaffinity_variance>
0.0645929798

$$$$
[H]c1nc(N([H])c2c([H])c([H])c(N3C([H])([H])C([H])([H])C([H])([H])[C@]([H])(N4C([H])([H])C([H])([H])OC([H])([H])C4([H])[H])C3([H])[H])c([H])c2OC([H])([H])[H])nc(N([H])c2c([H])c([H])c([H])c([H])c2S(=O)(=O)C(C([H])([H])[H])(C([H])([H])[H])C([H])([H])[H])c1Cl


 44 48  0  0  0  0  0  0  0  0999 V2000
   -0.6774  -52.4421  -23.3775 N   0  0  0  0  0  0  0  0  0  0  0  0
   -1.6604  -52.7735  -23.7294 H   0  0  0  0  0  0  0  0  0  0  0  0
    0.2515  -52.3073  -24.4201 C   0  0  0  0  0  0  0  0  0  0  0  0
    0.3352  -53.3636  -25.3213 N   0  0  0  0  0  0  0  0  0  0  0  0
    1.1718  -53.3589  -26.3374 C   0  0  0  0  0  0  0  0  0  0  0  0
    1.9852  -52.2925  -26.5209 C   0  0  0  0  0  0  0  0  0  0  0  0
    3.1101  -52.2659  -27.8815 Cl  0  0  0  0  0  0  0  0  0  0  0  0
    1.9523  -51.1878  -25.6438 C   0  0  0  0  0  0  0  0  0  0  0  0
    1.0661  -51.2969  -24.6471 N   0  0  0  0  0  0  0  0  0  0  0  0
    2.8853  -50.1616  -25.8560 N   0  0  0  0  0  0  0  0  0  0  0  0
    3.3743  -50.2107  -26.8050 H   0  0  0  0  0  0  0  0  0  0  0  0
    3.2680  -49.1295  -24.9992 C   0  0  0  0  0  0  0  0  0  0  0  0
    3.1022  -49.1973  -23.6146 C   0  0  0  0  0  0  0  0  0  0  0  0
    3.4807  -48.2150  -22.7380 C   0  0  0  0  0  0  0  0  0  0  0  0
    4.0628  -47.0806  -23.2472 C   0  0  0  0  0  0  0  0  0  0  0  0
    4.2324  -46.9878  -24.6000 C   0  0  0  0  0  0  0  0  0  0  0  0
    3.8532  -47.9783  -25.5193 C   0  0  0  0  0  0  0  0  0  0  0  0
    4.0152  -47.6846  -27.2112 S   0  0  0  0  0  0  0  0  0  0  0  0
    3.8241  -48.9317  -28.0645 O   0  0  0  0  0  0  0  0  0  0  0  0
    5.5300  -47.3958  -27.4181 O   0  0  0  0  0  0  0  0  0  0  0  0
    3.2017  -46.2778  -27.8454 C   0  0  0  0  0  0  0  0  0  0  0  0
    1.8413  -45.9741  -27.3304 C   0  0  0  0  0  0  0  0  0  0  0  0
    4.1074  -45.0258  -27.7765 C   0  0  0  0  0  0  0  0  0  0  0  0
    3.0101  -46.4587  -29.3801 C   0  0  0  0  0  0  0  0  0  0  0  0
   -1.1057  -53.1581  -21.1275 C   0  0  0  0  0  0  0  0  0  0  0  0
   -0.9916  -53.0252  -19.7617 C   0  0  0  0  0  0  0  0  0  0  0  0
   -0.3113  -51.9869  -19.1762 C   0  0  0  0  0  0  0  0  0  0  0  0
    0.2707  -51.0594  -20.0115 C   0  0  0  0  0  0  0  0  0  0  0  0
    0.1509  -51.2047  -21.3964 C   0  0  0  0  0  0  0  0  0  0  0  0
   -0.5209  -52.2235  -22.0087 C   0  0  0  0  0  0  0  0  0  0  0  0
   -0.1969  -51.8593  -17.7639 N   0  0  0  0  0  0  0  0  0  0  0  0
   -1.0966  -52.6292  -16.9312 C   0  0  0  0  0  0  0  0  0  0  0  0
   -1.7951  -51.5768  -16.0568 C   0  0  0  0  0  0  0  0  0  0  0  0
   -0.7480  -50.9935  -15.1569 C   0  0  0  0  0  0  0  0  0  0  0  0
    0.6602  -51.1025  -15.6565 C   0  0  0  0  0  0  0  0  0  0  0  0
    0.7600  -50.9713  -17.1415 C   0  0  0  0  0  0  0  0  0  0  0  0
    1.4517  -50.1797  -14.9448 N   0  0  0  0  0  0  0  0  0  0  0  0
    1.6506  -50.3385  -13.5639 C   0  0  0  0  0  0  0  0  0  0  0  0
    3.1480  -50.5463  -13.3112 C   0  0  0  0  0  0  0  0  0  0  0  0
    3.8961  -50.3305  -14.4749 O   0  0  0  0  0  0  0  0  0  0  0  0
    3.5629  -49.1087  -15.0680 C   0  0  0  0  0  0  0  0  0  0  0  0
    2.1260  -49.1481  -15.5916 C   0  0  0  0  0  0  0  0  0  0  0  0
   -1.1150  -55.1578  -22.4973 C   0  0  0  0  0  0  0  0  0  0  0  0
   -1.8027  -54.2215  -21.6778 O   0  0  0  0  0  0  0  0  0  0  0  0
 43 44  1  0  0  0
 44 25  1  0  0  0
 25 26  2  0  0  0
 26 27  1  0  0  0
 27 28  2  0  0  0
 28 29  1  0  0  0
 29 30  2  0  0  0
 30  1  1  0  0  0
  1  3  1  0  0  0
  3  4  2  0  0  0
  4  5  1  0  0  0
  5  6  2  0  0  0
  6  7  1  0  0  0
  6  8  1  0  0  0
  8 10  1  0  0  0
 10 12  1  0  0  0
 12 13  2  0  0  0
 13 14  1  0  0  0
 14 15  2  0  0  0
 15 16  1  0  0  0
 16 17  2  0  0  0
 17 18  1  0  0  0
 18 19  2  0  0  0
 18 20  2  0  0  0
 18 21  1  0  0  0
 21 22  1  0  0  0
 21 23  1  0  0  0
 21 24  1  0  0  0
  8  9  2  0  0  0
 27 31  1  0  0  0
 31 32  1  0  0  0
 32 33  1  0  0  0
 33 34  1  0  0  0
 34 35  1  0  0  0
 35 36  1  0  0  0
 35 37  1  0  0  0
 37 38  1  0  0  0
 38 39  1  0  0  0
 39 40  1  0  0  0
 40 41  1  0  0  0
 41 42  1  0  0  0
 30 25  1  0  0  0
  9  3  1  0  0  0
 36 31  1  0  0  0
 42 37  1  0  0  0
 17 12  1  0  0  0
  1  2  1  0  0  0
 10 11  1  0  0  0
M  END
> <minimizedAffinity>
-8.01412

> <CNNscore>
0.1989900768

> <CNNaffinity>
7.2519750595

> <CNN_VS>
1.4430711269

> <CNNaffinity_variance>
0.2457066476

$$$$
[H]c1nc(N([H])c2c([H])c([H])c(N3C([H])([H])C([H])([H])C([H])([H])[C@]([H])(N4C([H])([H])C([H])([H])OC([H])([H])C4([H])[H])C3([H])[H])c([H])c2OC([H])([H])[H])nc(N([H])c2c([H])c([H])c([H])c([H])c2S(=O)(=O)C(C([H])([H])[H])(C([H])([H])[H])C([H])([H])[H])c1Cl


 44 48  0  0  0  0  0  0  0  0999 V2000
   -0.0129  -52.9201  -19.8247 N   0  0  0  0  0  0  0  0  0  0  0  0
   -0.6346  -53.7481  -20.1824 H   0  0  0  0  0  0  0  0  0  0  0  0
   -0.3649  -52.5002  -18.5331 C   0  0  0  0  0  0  0  0  0  0  0  0
   -1.5986  -52.9274  -18.0530 N   0  0  0  0  0  0  0  0  0  0  0  0
   -2.0442  -52.5953  -16.8599 C   0  0  0  0  0  0  0  0  0  0  0  0
   -1.2824  -51.8096  -16.0632 C   0  0  0  0  0  0  0  0  0  0  0  0
   -1.8610  -51.3584  -14.4574 Cl  0  0  0  0  0  0  0  0  0  0  0  0
   -0.0213  -51.3408  -16.4884 C   0  0  0  0  0  0  0  0  0  0  0  0
    0.3333  -51.7383  -17.7160 N   0  0  0  0  0  0  0  0  0  0  0  0
    0.6671  -50.4641  -15.6363 N   0  0  0  0  0  0  0  0  0  0  0  0
    0.3319  -49.4510  -15.6952 H   0  0  0  0  0  0  0  0  0  0  0  0
    1.7242  -50.7317  -14.7664 C   0  0  0  0  0  0  0  0  0  0  0  0
    1.8475  -51.9397  -14.0774 C   0  0  0  0  0  0  0  0  0  0  0  0
    2.8782  -52.2486  -13.2296 C   0  0  0  0  0  0  0  0  0  0  0  0
    3.8621  -51.3108  -13.0363 C   0  0  0  0  0  0  0  0  0  0  0  0
    3.7624  -50.1182  -13.6960 C   0  0  0  0  0  0  0  0  0  0  0  0
    2.7175  -49.7764  -14.5687 C   0  0  0  0  0  0  0  0  0  0  0  0
    2.6496  -48.1913  -15.2451 S   0  0  0  0  0  0  0  0  0  0  0  0
    1.9758  -48.1426  -16.6103 O   0  0  0  0  0  0  0  0  0  0  0  0
    4.1235  -47.8563  -15.6141 O   0  0  0  0  0  0  0  0  0  0  0  0
    2.1524  -46.9032  -14.1790 C   0  0  0  0  0  0  0  0  0  0  0  0
    3.1936  -46.2646  -13.3326 C   0  0  0  0  0  0  0  0  0  0  0  0
    1.3272  -45.8350  -14.9344 C   0  0  0  0  0  0  0  0  0  0  0  0
    1.1115  -47.4643  -13.1659 C   0  0  0  0  0  0  0  0  0  0  0  0
    0.7180  -52.4744  -22.0665 C   0  0  0  0  0  0  0  0  0  0  0  0
    1.6374  -52.0117  -22.9812 C   0  0  0  0  0  0  0  0  0  0  0  0
    2.8530  -51.4953  -22.6082 C   0  0  0  0  0  0  0  0  0  0  0  0
    3.1356  -51.4489  -21.2610 C   0  0  0  0  0  0  0  0  0  0  0  0
    2.1946  -51.9190  -20.3406 C   0  0  0  0  0  0  0  0  0  0  0  0
    0.9793  -52.4404  -20.6798 C   0  0  0  0  0  0  0  0  0  0  0  0
    3.7957  -51.0175  -23.5606 N   0  0  0  0  0  0  0  0  0  0  0  0
    5.0592  -51.7134  -23.6826 C   0  0  0  0  0  0  0  0  0  0  0  0
    6.1150  -50.6230  -23.4446 C   0  0  0  0  0  0  0  0  0  0  0  0
    6.0219  -49.6677  -24.5957 C   0  0  0  0  0  0  0  0  0  0  0  0
    4.7017  -49.6429  -25.3036 C   0  0  0  0  0  0  0  0  0  0  0  0
    3.5455  -49.8530  -24.3809 C   0  0  0  0  0  0  0  0  0  0  0  0
    4.6277  -48.4530  -26.0540 N   0  0  0  0  0  0  0  0  0  0  0  0
    3.3836  -47.8494  -26.2983 C   0  0  0  0  0  0  0  0  0  0  0  0
    3.3860  -46.4580  -25.6555 C   0  0  0  0  0  0  0  0  0  0  0  0
    4.6602  -46.1147  -25.1878 O   0  0  0  0  0  0  0  0  0  0  0  0
    5.6287  -46.3077  -26.1780 C   0  0  0  0  0  0  0  0  0  0  0  0
    5.7739  -47.7974  -26.4941 C   0  0  0  0  0  0  0  0  0  0  0  0
   -0.5685  -53.7008  -23.7145 C   0  0  0  0  0  0  0  0  0  0  0  0
   -0.4979  -52.9892  -22.4857 O   0  0  0  0  0  0  0  0  0  0  0  0
 43 44  1  0  0  0
 44 25  1  0  0  0
 25 26  2  0  0  0
 26 27  1  0  0  0
 27 28  2  0  0  0
 28 29  1  0  0  0
 29 30  2  0  0  0
 30  1  1  0  0  0
  1  3  1  0  0  0
  3  4  2  0  0  0
  4  5  1  0  0  0
  5  6  2  0  0  0
  6  7  1  0  0  0
  6  8  1  0  0  0
  8 10  1  0  0  0
 10 12  1  0  0  0
 12 13  2  0  0  0
 13 14  1  0  0  0
 14 15  2  0  0  0
 15 16  1  0  0  0
 16 17  2  0  0  0
 17 18  1  0  0  0
 18 19  2  0  0  0
 18 20  2  0  0  0
 18 21  1  0  0  0
 21 22  1  0  0  0
 21 23  1  0  0  0
 21 24  1  0  0  0
  8  9  2  0  0  0
 27 31  1  0  0  0
 31 32  1  0  0  0
 32 33  1  0  0  0
 33 34  1  0  0  0
 34 35  1  0  0  0
 35 36  1  0  0  0
 35 37  1  0  0  0
 37 38  1  0  0  0
 38 39  1  0  0  0
 39 40  1  0  0  0
 40 41  1  0  0  0
 41 42  1  0  0  0
 30 25  1  0  0  0
  9  3  1  0  0  0
 36 31  1  0  0  0
 42 37  1  0  0  0
 17 12  1  0  0  0
  1  2  1  0  0  0
 10 11  1  0  0  0
M  END
> <minimizedAffinity>
-6.35577

> <CNNscore>
0.0870779976

> <CNNaffinity>
6.9840164185

> <CNN_VS>
0.6081541777

> <CNNaffinity_variance>
0.1518421173

$$$$
[H]c1nc(N([H])c2c([H])c([H])c(N3C([H])([H])C([H])([H])C([H])([H])[C@]([H])(N4C([H])([H])C([H])([H])OC([H])([H])C4([H])[H])C3([H])[H])c([H])c2OC([H])([H])[H])nc(N([H])c2c([H])c([H])c([H])c([H])c2S(=O)(=O)C(C([H])([H])[H])(C([H])([H])[H])C([H])([H])[H])c1Cl


 44 48  0  0  0  0  0  0  0  0999 V2000
    0.5931  -52.7252  -20.5683 N   0  0  0  0  0  0  0  0  0  0  0  0
    0.1877  -53.6715  -20.9428 H   0  0  0  0  0  0  0  0  0  0  0  0
    0.1440  -52.4203  -19.2747 C   0  0  0  0  0  0  0  0  0  0  0  0
   -1.0701  -52.9784  -18.8882 N   0  0  0  0  0  0  0  0  0  0  0  0
   -1.5999  -52.7623  -17.7030 C   0  0  0  0  0  0  0  0  0  0  0  0
   -0.9482  -51.9692  -16.8205 C   0  0  0  0  0  0  0  0  0  0  0  0
   -1.6407  -51.6722  -15.2239 Cl  0  0  0  0  0  0  0  0  0  0  0  0
    0.2869  -51.3709  -17.1483 C   0  0  0  0  0  0  0  0  0  0  0  0
    0.7336  -51.6574  -18.3768 N   0  0  0  0  0  0  0  0  0  0  0  0
    0.8551  -50.4969  -16.2091 N   0  0  0  0  0  0  0  0  0  0  0  0
    0.4993  -49.4919  -16.2825 H   0  0  0  0  0  0  0  0  0  0  0  0
    1.8205  -50.7574  -15.2365 C   0  0  0  0  0  0  0  0  0  0  0  0
    1.7021  -51.8001  -14.3156 C   0  0  0  0  0  0  0  0  0  0  0  0
    2.6346  -52.1003  -13.3581 C   0  0  0  0  0  0  0  0  0  0  0  0
    3.7667  -51.3267  -13.2904 C   0  0  0  0  0  0  0  0  0  0  0  0
    3.9047  -50.2969  -14.1780 C   0  0  0  0  0  0  0  0  0  0  0  0
    2.9649  -49.9677  -15.1673 C   0  0  0  0  0  0  0  0  0  0  0  0
    3.2060  -48.5687  -16.1468 S   0  0  0  0  0  0  0  0  0  0  0  0
    4.0770  -47.5081  -15.4861 O   0  0  0  0  0  0  0  0  0  0  0  0
    1.8205  -47.8612  -16.1720 O   0  0  0  0  0  0  0  0  0  0  0  0
    3.5980  -48.8427  -17.8244 C   0  0  0  0  0  0  0  0  0  0  0  0
    4.1070  -50.1858  -18.2057 C   0  0  0  0  0  0  0  0  0  0  0  0
    2.4367  -48.4119  -18.7508 C   0  0  0  0  0  0  0  0  0  0  0  0
    4.7311  -47.8595  -18.2417 C   0  0  0  0  0  0  0  0  0  0  0  0
    1.0210  -51.7837  -22.7338 C   0  0  0  0  0  0  0  0  0  0  0  0
    1.7974  -51.0795  -23.6268 C   0  0  0  0  0  0  0  0  0  0  0  0
    3.0225  -50.5609  -23.2896 C   0  0  0  0  0  0  0  0  0  0  0  0
    3.4652  -50.7665  -22.0018 C   0  0  0  0  0  0  0  0  0  0  0  0
    2.6686  -51.4806  -21.1025 C   0  0  0  0  0  0  0  0  0  0  0  0
    1.4481  -52.0110  -21.4079 C   0  0  0  0  0  0  0  0  0  0  0  0
    3.8165  -49.8326  -24.2187 N   0  0  0  0  0  0  0  0  0  0  0  0
    5.1523  -50.3129  -24.5026 C   0  0  0  0  0  0  0  0  0  0  0  0
    6.0603  -49.1171  -24.1772 C   0  0  0  0  0  0  0  0  0  0  0  0
    5.7504  -48.0486  -25.1815 C   0  0  0  0  0  0  0  0  0  0  0  0
    4.3912  -48.1304  -25.8063 C   0  0  0  0  0  0  0  0  0  0  0  0
    3.3467  -48.6239  -24.8588 C   0  0  0  0  0  0  0  0  0  0  0  0
    4.0969  -46.8795  -26.3835 N   0  0  0  0  0  0  0  0  0  0  0  0
    3.2657  -46.8017  -27.5125 C   0  0  0  0  0  0  0  0  0  0  0  0
    2.0219  -45.9859  -27.1428 C   0  0  0  0  0  0  0  0  0  0  0  0
    2.1536  -45.4006  -25.8778 O   0  0  0  0  0  0  0  0  0  0  0  0
    3.3650  -44.7109  -25.7660 C   0  0  0  0  0  0  0  0  0  0  0  0
    4.5389  -45.6909  -25.8097 C   0  0  0  0  0  0  0  0  0  0  0  0
   -0.4890  -52.4823  -24.4964 C   0  0  0  0  0  0  0  0  0  0  0  0
   -0.2101  -52.2915  -23.1155 O   0  0  0  0  0  0  0  0  0  0  0  0
 43 44  1  0  0  0
 44 25  1  0  0  0
 25 26  2  0  0  0
 26 27  1  0  0  0
 27 28  2  0  0  0
 28 29  1  0  0  0
 29 30  2  0  0  0
 30  1  1  0  0  0
  1  3  1  0  0  0
  3  4  2  0  0  0
  4  5  1  0  0  0
  5  6  2  0  0  0
  6  7  1  0  0  0
  6  8  1  0  0  0
  8 10  1  0  0  0
 10 12  1  0  0  0
 12 13  2  0  0  0
 13 14  1  0  0  0
 14 15  2  0  0  0
 15 16  1  0  0  0
 16 17  2  0  0  0
 17 18  1  0  0  0
 18 19  2  0  0  0
 18 20  2  0  0  0
 18 21  1  0  0  0
 21 22  1  0  0  0
 21 23  1  0  0  0
 21 24  1  0  0  0
  8  9  2  0  0  0
 27 31  1  0  0  0
 31 32  1  0  0  0
 32 33  1  0  0  0
 33 34  1  0  0  0
 34 35  1  0  0  0
 35 36  1  0  0  0
 35 37  1  0  0  0
 37 38  1  0  0  0
 38 39  1  0  0  0
 39 40  1  0  0  0
 40 41  1  0  0  0
 41 42  1  0  0  0
 30 25  1  0  0  0
  9  3  1  0  0  0
 36 31  1  0  0  0
 42 37  1  0  0  0
 17 12  1  0  0  0
  1  2  1  0  0  0
 10 11  1  0  0  0
M  END
> <minimizedAffinity>
-6.69398

> <CNNscore>
0.0797991976

> <CNNaffinity>
6.9012093544

> <CNN_VS>
0.5507109761

> <CNNaffinity_variance>
0.1319504380

$$$$
[H]c1nc(N([H])c2c([H])c([H])c(N3C([H])([H])C([H])([H])C([H])([H])[C@]([H])(N4C([H])([H])C([H])([H])OC([H])([H])C4([H])[H])C3([H])[H])c([H])c2OC([H])([H])[H])nc(N([H])c2c([H])c([H])c([H])c([H])c2S(=O)(=O)C(C([H])([H])[H])(C([H])([H])[H])C([H])([H])[H])c1Cl


 44 48  0  0  0  0  0  0  0  0999 V2000
    1.4818  -52.4894  -22.9862 N   0  0  0  0  0  0  0  0  0  0  0  0
    1.4875  -53.4721  -23.4702 H   0  0  0  0  0  0  0  0  0  0  0  0
    0.8927  -52.5186  -21.7133 C   0  0  0  0  0  0  0  0  0  0  0  0
   -0.0826  -53.4872  -21.4994 N   0  0  0  0  0  0  0  0  0  0  0  0
   -0.7126  -53.6117  -20.3506 C   0  0  0  0  0  0  0  0  0  0  0  0
   -0.4085  -52.7715  -19.3338 C   0  0  0  0  0  0  0  0  0  0  0  0
   -1.2393  -52.9268  -17.7836 Cl  0  0  0  0  0  0  0  0  0  0  0  0
    0.5702  -51.7661  -19.4832 C   0  0  0  0  0  0  0  0  0  0  0  0
    1.1476  -51.7290  -20.6899 N   0  0  0  0  0  0  0  0  0  0  0  0
    0.7658  -50.8848  -18.4091 N   0  0  0  0  0  0  0  0  0  0  0  0
    0.1956  -51.1298  -17.5390 H   0  0  0  0  0  0  0  0  0  0  0  0
    1.5651  -49.7437  -18.3418 C   0  0  0  0  0  0  0  0  0  0  0  0
    2.0003  -49.0588  -19.4780 C   0  0  0  0  0  0  0  0  0  0  0  0
    2.7698  -47.9258  -19.4547 C   0  0  0  0  0  0  0  0  0  0  0  0
    3.1455  -47.4221  -18.2340 C   0  0  0  0  0  0  0  0  0  0  0  0
    2.7360  -48.0765  -17.1065 C   0  0  0  0  0  0  0  0  0  0  0  0
    1.9486  -49.2385  -17.1025 C   0  0  0  0  0  0  0  0  0  0  0  0
    1.6006  -50.0329  -15.6116 S   0  0  0  0  0  0  0  0  0  0  0  0
    0.2794  -50.7907  -15.6219 O   0  0  0  0  0  0  0  0  0  0  0  0
    1.2898  -48.8804  -14.6136 O   0  0  0  0  0  0  0  0  0  0  0  0
    2.9061  -50.9234  -14.8729 C   0  0  0  0  0  0  0  0  0  0  0  0
    2.5519  -52.0429  -13.9622 C   0  0  0  0  0  0  0  0  0  0  0  0
    3.9427  -51.3792  -15.9265 C   0  0  0  0  0  0  0  0  0  0  0  0
    3.7423  -49.9490  -13.9918 C   0  0  0  0  0  0  0  0  0  0  0  0
    1.7075  -51.2989  -25.0575 C   0  0  0  0  0  0  0  0  0  0  0  0
    2.2002  -50.2672  -25.8248 C   0  0  0  0  0  0  0  0  0  0  0  0
    3.0322  -49.3017  -25.3157 C   0  0  0  0  0  0  0  0  0  0  0  0
    3.3681  -49.3929  -23.9832 C   0  0  0  0  0  0  0  0  0  0  0  0
    2.8608  -50.4427  -23.2124 C   0  0  0  0  0  0  0  0  0  0  0  0
    2.0344  -51.4191  -23.6897 C   0  0  0  0  0  0  0  0  0  0  0  0
    3.5345  -48.2381  -26.1160 N   0  0  0  0  0  0  0  0  0  0  0  0
    3.3550  -46.8815  -25.6436 C   0  0  0  0  0  0  0  0  0  0  0  0
    2.6098  -46.1788  -26.7886 C   0  0  0  0  0  0  0  0  0  0  0  0
    3.5528  -46.1221  -27.9522 C   0  0  0  0  0  0  0  0  0  0  0  0
    4.6353  -47.1578  -27.9515 C   0  0  0  0  0  0  0  0  0  0  0  0
    4.1853  -48.4660  -27.3872 C   0  0  0  0  0  0  0  0  0  0  0  0
    5.1598  -47.2461  -29.2560 N   0  0  0  0  0  0  0  0  0  0  0  0
    6.1422  -48.2028  -29.5579 C   0  0  0  0  0  0  0  0  0  0  0  0
    5.5802  -49.1556  -30.6189 C   0  0  0  0  0  0  0  0  0  0  0  0
    4.3530  -48.6994  -31.1150 O   0  0  0  0  0  0  0  0  0  0  0  0
    4.4365  -47.3607  -31.5106 C   0  0  0  0  0  0  0  0  0  0  0  0
    4.6653  -46.4617  -30.2941 C   0  0  0  0  0  0  0  0  0  0  0  0
   -0.4832  -51.9198  -25.8885 C   0  0  0  0  0  0  0  0  0  0  0  0
    0.8706  -52.2539  -25.6115 O   0  0  0  0  0  0  0  0  0  0  0  0
 43 44  1  0  0  0
 44 25  1  0  0  0
 25 26  2  0  0  0
 26 27  1  0  0  0
 27 28  2  0  0  0
 28 29  1  0  0  0
 29 30  2  0  0  0
 30  1  1  0  0  0
  1  3  1  0  0  0
  3  4  2  0  0  0
  4  5  1  0  0  0
  5  6  2  0  0  0
  6  7  1  0  0  0
  6  8  1  0  0  0
  8 10  1  0  0  0
 10 12  1  0  0  0
 12 13  2  0  0  0
 13 14  1  0  0  0
 14 15  2  0  0  0
 15 16  1  0  0  0
 16 17  2  0  0  0
 17 18  1  0  0  0
 18 19  2  0  0  0
 18 20  2  0  0  0
 18 21  1  0  0  0
 21 22  1  0  0  0
 21 23  1  0  0  0
 21 24  1  0  0  0
  8  9  2  0  0  0
 27 31  1  0  0  0
 31 32  1  0  0  0
 32 33  1  0  0  0
 33 34  1  0  0  0
 34 35  1  0  0  0
 35 36  1  0  0  0
 35 37  1  0  0  0
 37 38  1  0  0  0
 38 39  1  0  0  0
 39 40  1  0  0  0
 40 41  1  0  0  0
 41 42  1  0  0  0
 30 25  1  0  0  0
  9  3  1  0  0  0
 36 31  1  0  0  0
 42 37  1  0  0  0
 17 12  1  0  0  0
  1  2  1  0  0  0
 10 11  1  0  0  0
M  END
> <minimizedAffinity>
-7.28834

> <CNNscore>
0.0755503923

> <CNNaffinity>
6.8749985695

> <CNN_VS>
0.5194088221

> <CNNaffinity_variance>
0.4100244045

$$$$
[H]c1nc(N([H])c2c([H])c([H])c(N3C([H])([H])C([H])([H])C([H])([H])[C@]([H])(N4C([H])([H])C([H])([H])OC([H])([H])C4([H])[H])C3([H])[H])c([H])c2OC([H])([H])[H])nc(N([H])c2c([H])c([H])c([H])c([H])c2S(=O)(=O)C(C([H])([H])[H])(C([H])([H])[H])C([H])([H])[H])c1Cl


 44 48  0  0  0  0  0  0  0  0999 V2000
    1.1961  -52.7384  -23.2210 N   0  0  0  0  0  0  0  0  0  0  0  0
    1.2130  -53.6983  -23.7486 H   0  0  0  0  0  0  0  0  0  0  0  0
    0.5280  -52.8115  -21.9896 C   0  0  0  0  0  0  0  0  0  0  0  0
   -0.4215  -53.8190  -21.8539 N   0  0  0  0  0  0  0  0  0  0  0  0
   -1.1187  -53.9868  -20.7503 C   0  0  0  0  0  0  0  0  0  0  0  0
   -0.9127  -53.1537  -19.7034 C   0  0  0  0  0  0  0  0  0  0  0  0
   -1.8347  -53.3667  -18.2129 Cl  0  0  0  0  0  0  0  0  0  0  0  0
    0.0346  -52.1104  -19.7741 C   0  0  0  0  0  0  0  0  0  0  0  0
    0.6865  -52.0309  -20.9401 N   0  0  0  0  0  0  0  0  0  0  0  0
    0.1273  -51.2413  -18.6764 N   0  0  0  0  0  0  0  0  0  0  0  0
   -0.6117  -51.4143  -17.9240 H   0  0  0  0  0  0  0  0  0  0  0  0
    1.0177  -50.1897  -18.4596 C   0  0  0  0  0  0  0  0  0  0  0  0
    1.6690  -49.5254  -19.5007 C   0  0  0  0  0  0  0  0  0  0  0  0
    2.5352  -48.4778  -19.3317 C   0  0  0  0  0  0  0  0  0  0  0  0
    2.7881  -48.0451  -18.0536 C   0  0  0  0  0  0  0  0  0  0  0  0
    2.1663  -48.6816  -17.0165 C   0  0  0  0  0  0  0  0  0  0  0  0
    1.2759  -49.7569  -17.1619 C   0  0  0  0  0  0  0  0  0  0  0  0
    0.6514  -50.5478  -15.7621 S   0  0  0  0  0  0  0  0  0  0  0  0
    1.6784  -50.7126  -14.6495 O   0  0  0  0  0  0  0  0  0  0  0  0
    0.4351  -52.0233  -16.2062 O   0  0  0  0  0  0  0  0  0  0  0  0
   -0.9105  -50.0194  -15.1928 C   0  0  0  0  0  0  0  0  0  0  0  0
   -1.3363  -48.6351  -15.5253 C   0  0  0  0  0  0  0  0  0  0  0  0
   -2.0163  -51.0372  -15.5587 C   0  0  0  0  0  0  0  0  0  0  0  0
   -0.9208  -50.0710  -13.6365 C   0  0  0  0  0  0  0  0  0  0  0  0
    1.6921  -51.5421  -25.2413 C   0  0  0  0  0  0  0  0  0  0  0  0
    2.2600  -50.4945  -25.9313 C   0  0  0  0  0  0  0  0  0  0  0  0
    2.9721  -49.5007  -25.3078 C   0  0  0  0  0  0  0  0  0  0  0  0
    3.1053  -49.5794  -23.9393 C   0  0  0  0  0  0  0  0  0  0  0  0
    2.5231  -50.6456  -23.2480 C   0  0  0  0  0  0  0  0  0  0  0  0
    1.8121  -51.6501  -23.8391 C   0  0  0  0  0  0  0  0  0  0  0  0
    3.5534  -48.4209  -26.0291 N   0  0  0  0  0  0  0  0  0  0  0  0
    3.5035  -47.0988  -25.4415 C   0  0  0  0  0  0  0  0  0  0  0  0
    2.8043  -46.2391  -26.5056 C   0  0  0  0  0  0  0  0  0  0  0  0
    3.7286  -46.1664  -27.6832 C   0  0  0  0  0  0  0  0  0  0  0  0
    4.7145  -47.2889  -27.7950 C   0  0  0  0  0  0  0  0  0  0  0  0
    4.1595  -48.5960  -27.3304 C   0  0  0  0  0  0  0  0  0  0  0  0
    5.2067  -47.3116  -29.1148 N   0  0  0  0  0  0  0  0  0  0  0  0
    6.1432  -48.2838  -29.5016 C   0  0  0  0  0  0  0  0  0  0  0  0
    5.5205  -49.1425  -30.6081 C   0  0  0  0  0  0  0  0  0  0  0  0
    4.3022  -48.6076  -31.0438 O   0  0  0  0  0  0  0  0  0  0  0  0
    4.4308  -47.2500  -31.3539 C   0  0  0  0  0  0  0  0  0  0  0  0
    4.7218  -46.4423  -30.0877 C   0  0  0  0  0  0  0  0  0  0  0  0
   -0.1342  -52.1587  -26.7108 C   0  0  0  0  0  0  0  0  0  0  0  0
    0.9816  -52.5257  -25.9099 O   0  0  0  0  0  0  0  0  0  0  0  0
 43 44  1  0  0  0
 44 25  1  0  0  0
 25 26  2  0  0  0
 26 27  1  0  0  0
 27 28  2  0  0  0
 28 29  1  0  0  0
 29 30  2  0  0  0
 30  1  1  0  0  0
  1  3  1  0  0  0
  3  4  2  0  0  0
  4  5  1  0  0  0
  5  6  2  0  0  0
  6  7  1  0  0  0
  6  8  1  0  0  0
  8 10  1  0  0  0
 10 12  1  0  0  0
 12 13  2  0  0  0
 13 14  1  0  0  0
 14 15  2  0  0  0
 15 16  1  0  0  0
 16 17  2  0  0  0
 17 18  1  0  0  0
 18 19  2  0  0  0
 18 20  2  0  0  0
 18 21  1  0  0  0
 21 22  1  0  0  0
 21 23  1  0  0  0
 21 24  1  0  0  0
  8  9  2  0  0  0
 27 31  1  0  0  0
 31 32  1  0  0  0
 32 33  1  0  0  0
 33 34  1  0  0  0
 34 35  1  0  0  0
 35 36  1  0  0  0
 35 37  1  0  0  0
 37 38  1  0  0  0
 38 39  1  0  0  0
 39 40  1  0  0  0
 40 41  1  0  0  0
 41 42  1  0  0  0
 30 25  1  0  0  0
  9  3  1  0  0  0
 36 31  1  0  0  0
 42 37  1  0  0  0
 17 12  1  0  0  0
  1  2  1  0  0  0
 10 11  1  0  0  0
M  END
> <minimizedAffinity>
-7.30776

> <CNNscore>
0.0752953142

> <CNNaffinity>
6.9650487900

> <CNN_VS>
0.5244355202

> <CNNaffinity_variance>
0.4824650288

$$$$
[H]c1nc(N([H])c2c([H])c([H])c(N3C([H])([H])C([H])([H])C([H])(N4C([H])([H])C([H])([H])OC([H])([H])C4([H])[H])C([H])([H])C3([H])[H])c([H])c2OC([H])([H])[H])nc(N([H])c2c([H])c([H])c([H])c([H])c2S(=O)(=O)C([H])(C([H])([H])[H])C([H])([H])[H])c1Cl


 43 47  0  0  0  0  0  0  0  0999 V2000
   -1.1166  -53.3698  -18.4046 N   0  0  0  0  0  0  0  0  0  0  0  0
   -1.2952  -54.4451  -18.4762 H   0  0  0  0  0  0  0  0  0  0  0  0
   -1.7921  -52.7570  -17.3323 C   0  0  0  0  0  0  0  0  0  0  0  0
   -3.0990  -53.1480  -17.1164 N   0  0  0  0  0  0  0  0  0  0  0  0
   -3.8562  -52.6923  -16.1403 C   0  0  0  0  0  0  0  0  0  0  0  0
   -3.3393  -51.7660  -15.2624 C   0  0  0  0  0  0  0  0  0  0  0  0
   -4.2724  -51.1182  -13.9438 Cl  0  0  0  0  0  0  0  0  0  0  0  0
   -2.0136  -51.3252  -15.4242 C   0  0  0  0  0  0  0  0  0  0  0  0
   -1.3328  -51.8645  -16.4648 N   0  0  0  0  0  0  0  0  0  0  0  0
   -1.5365  -50.3658  -14.5279 N   0  0  0  0  0  0  0  0  0  0  0  0
   -1.1832  -50.7551  -13.5985 H   0  0  0  0  0  0  0  0  0  0  0  0
   -1.4163  -48.9660  -14.6324 C   0  0  0  0  0  0  0  0  0  0  0  0
   -2.4903  -48.1343  -14.8141 C   0  0  0  0  0  0  0  0  0  0  0  0
   -2.3098  -46.7770  -14.9754 C   0  0  0  0  0  0  0  0  0  0  0  0
   -1.0616  -46.2074  -14.9615 C   0  0  0  0  0  0  0  0  0  0  0  0
    0.0385  -47.0338  -14.7782 C   0  0  0  0  0  0  0  0  0  0  0  0
   -0.1309  -48.3898  -14.6164 C   0  0  0  0  0  0  0  0  0  0  0  0
    1.3022  -49.3384  -14.3724 S   0  0  0  0  0  0  0  0  0  0  0  0
    2.4613  -48.5636  -13.8240 O   0  0  0  0  0  0  0  0  0  0  0  0
    0.9936  -50.3840  -13.2935 O   0  0  0  0  0  0  0  0  0  0  0  0
    1.7837  -50.1936  -15.8297 C   0  0  0  0  0  0  0  0  0  0  0  0
    2.0419  -49.1654  -16.9610 C   0  0  0  0  0  0  0  0  0  0  0  0
    2.9947  -51.0667  -15.6427 C   0  0  0  0  0  0  0  0  0  0  0  0
   -0.4031  -53.3381  -20.6859 C   0  0  0  0  0  0  0  0  0  0  0  0
    0.3891  -52.7946  -21.6688 C   0  0  0  0  0  0  0  0  0  0  0  0
    1.3066  -51.7779  -21.4223 C   0  0  0  0  0  0  0  0  0  0  0  0
    1.4118  -51.3118  -20.1402 C   0  0  0  0  0  0  0  0  0  0  0  0
    0.6204  -51.8396  -19.1079 C   0  0  0  0  0  0  0  0  0  0  0  0
   -0.2758  -52.8424  -19.3845 C   0  0  0  0  0  0  0  0  0  0  0  0
    2.1328  -51.2312  -22.4406 N   0  0  0  0  0  0  0  0  0  0  0  0
    2.1146  -49.7936  -22.7222 C   0  0  0  0  0  0  0  0  0  0  0  0
    3.3723  -49.4205  -23.5052 C   0  0  0  0  0  0  0  0  0  0  0  0
    4.5648  -50.0635  -22.8593 C   0  0  0  0  0  0  0  0  0  0  0  0
    4.4784  -51.5455  -23.1560 C   0  0  0  0  0  0  0  0  0  0  0  0
    3.0350  -52.0070  -23.2461 C   0  0  0  0  0  0  0  0  0  0  0  0
    5.7958  -49.5687  -23.4121 N   0  0  0  0  0  0  0  0  0  0  0  0
    5.5840  -49.1319  -24.7981 C   0  0  0  0  0  0  0  0  0  0  0  0
    6.9106  -48.5582  -25.2647 C   0  0  0  0  0  0  0  0  0  0  0  0
    7.9091  -49.5255  -25.2744 O   0  0  0  0  0  0  0  0  0  0  0  0
    8.0963  -49.9133  -23.9528 C   0  0  0  0  0  0  0  0  0  0  0  0
    6.8233  -50.5919  -23.4929 C   0  0  0  0  0  0  0  0  0  0  0  0
   -1.4141  -54.8751  -22.2495 C   0  0  0  0  0  0  0  0  0  0  0  0
   -1.3143  -54.3500  -20.9375 O   0  0  0  0  0  0  0  0  0  0  0  0
 42 43  1  0  0  0
 43 24  1  0  0  0
 24 25  2  0  0  0
 25 26  1  0  0  0
 26 27  2  0  0  0
 27 28  1  0  0  0
 28 29  2  0  0  0
 29  1  1  0  0  0
  1  3  1  0  0  0
  3  4  2  0  0  0
  4  5  1  0  0  0
  5  6  2  0  0  0
  6  7  1  0  0  0
  6  8  1  0  0  0
  8 10  1  0  0  0
 10 12  1  0  0  0
 12 13  2  0  0  0
 13 14  1  0  0  0
 14 15  2  0  0  0
 15 16  1  0  0  0
 16 17  2  0  0  0
 17 18  1  0  0  0
 18 19  2  0  0  0
 18 20  2  0  0  0
 18 21  1  0  0  0
 21 22  1  0  0  0
 21 23  1  0  0  0
  8  9  2  0  0  0
 26 30  1  0  0  0
 30 31  1  0  0  0
 31 32  1  0  0  0
 32 33  1  0  0  0
 33 34  1  0  0  0
 34 35  1  0  0  0
 33 36  1  0  0  0
 36 37  1  0  0  0
 37 38  1  0  0  0
 38 39  1  0  0  0
 39 40  1  0  0  0
 40 41  1  0  0  0
 29 24  1  0  0  0
  9  3  1  0  0  0
 35 30  1  0  0  0
 41 36  1  0  0  0
 17 12  1  0  0  0
  1  2  1  0  0  0
 10 11  1  0  0  0
M  END
> <minimizedAffinity>
-7.34804

> <CNNscore>
0.3126714230

> <CNNaffinity>
7.2364501953

> <CNN_VS>
2.2626311779

> <CNNaffinity_variance>
0.1000952348

$$$$
[H]c1nc(N([H])c2c([H])c([H])c(N3C([H])([H])C([H])([H])C([H])(N4C([H])([H])C([H])([H])OC([H])([H])C4([H])[H])C([H])([H])C3([H])[H])c([H])c2OC([H])([H])[H])nc(N([H])c2c([H])c([H])c([H])c([H])c2S(=O)(=O)C([H])(C([H])([H])[H])C([H])([H])[H])c1Cl


 43 47  0  0  0  0  0  0  0  0999 V2000
    0.5028  -52.6005  -19.3109 N   0  0  0  0  0  0  0  0  0  0  0  0
    0.2281  -53.3799  -18.5965 H   0  0  0  0  0  0  0  0  0  0  0  0
    0.2608  -52.9548  -20.6517 C   0  0  0  0  0  0  0  0  0  0  0  0
   -0.1892  -54.2399  -20.8831 N   0  0  0  0  0  0  0  0  0  0  0  0
   -0.4884  -54.7160  -22.0738 C   0  0  0  0  0  0  0  0  0  0  0  0
   -0.3545  -53.9040  -23.1777 C   0  0  0  0  0  0  0  0  0  0  0  0
   -0.7334  -54.4552  -24.7844 Cl  0  0  0  0  0  0  0  0  0  0  0  0
    0.0981  -52.5826  -23.0127 C   0  0  0  0  0  0  0  0  0  0  0  0
    0.3752  -52.2058  -21.7407 N   0  0  0  0  0  0  0  0  0  0  0  0
    0.2447  -51.8006  -24.1609 N   0  0  0  0  0  0  0  0  0  0  0  0
    0.7307  -50.8624  -24.0069 H   0  0  0  0  0  0  0  0  0  0  0  0
   -0.1172  -52.0319  -25.5027 C   0  0  0  0  0  0  0  0  0  0  0  0
   -1.4057  -51.9303  -25.9584 C   0  0  0  0  0  0  0  0  0  0  0  0
   -1.7148  -52.2312  -27.2679 C   0  0  0  0  0  0  0  0  0  0  0  0
   -0.7567  -52.6409  -28.1606 C   0  0  0  0  0  0  0  0  0  0  0  0
    0.5543  -52.7494  -27.7175 C   0  0  0  0  0  0  0  0  0  0  0  0
    0.8731  -52.4515  -26.4125 C   0  0  0  0  0  0  0  0  0  0  0  0
    2.5420  -52.5965  -25.9573 S   0  0  0  0  0  0  0  0  0  0  0  0
    2.7957  -53.6066  -24.8804 O   0  0  0  0  0  0  0  0  0  0  0  0
    3.3143  -53.1269  -27.1717 O   0  0  0  0  0  0  0  0  0  0  0  0
    3.2406  -51.0480  -25.5086 C   0  0  0  0  0  0  0  0  0  0  0  0
    4.6240  -51.2858  -24.8503 C   0  0  0  0  0  0  0  0  0  0  0  0
    3.3783  -50.0929  -26.6629 C   0  0  0  0  0  0  0  0  0  0  0  0
    2.3903  -51.1740  -18.9691 C   0  0  0  0  0  0  0  0  0  0  0  0
    2.9160  -50.0122  -18.4562 C   0  0  0  0  0  0  0  0  0  0  0  0
    2.1594  -49.0978  -17.7299 C   0  0  0  0  0  0  0  0  0  0  0  0
    0.8370  -49.3840  -17.5267 C   0  0  0  0  0  0  0  0  0  0  0  0
    0.2615  -50.5595  -18.0344 C   0  0  0  0  0  0  0  0  0  0  0  0
    1.0357  -51.4413  -18.7473 C   0  0  0  0  0  0  0  0  0  0  0  0
    2.7132  -47.9061  -17.1901 N   0  0  0  0  0  0  0  0  0  0  0  0
    2.3901  -47.4874  -15.8238 C   0  0  0  0  0  0  0  0  0  0  0  0
    3.4296  -46.4721  -15.3519 C   0  0  0  0  0  0  0  0  0  0  0  0
    4.8014  -46.9720  -15.6999 C   0  0  0  0  0  0  0  0  0  0  0  0
    4.9465  -46.8455  -17.2015 C   0  0  0  0  0  0  0  0  0  0  0  0
    3.6150  -47.0442  -17.9032 C   0  0  0  0  0  0  0  0  0  0  0  0
    5.8263  -46.1746  -15.0838 N   0  0  0  0  0  0  0  0  0  0  0  0
    6.3826  -46.8817  -13.9231 C   0  0  0  0  0  0  0  0  0  0  0  0
    7.5011  -46.0019  -13.3922 C   0  0  0  0  0  0  0  0  0  0  0  0
    7.0183  -44.7759  -12.9487 O   0  0  0  0  0  0  0  0  0  0  0  0
    6.5080  -44.1248  -14.0658 C   0  0  0  0  0  0  0  0  0  0  0  0
    5.3169  -44.9225  -14.5530 C   0  0  0  0  0  0  0  0  0  0  0  0
    3.8352  -51.6356  -20.8475 C   0  0  0  0  0  0  0  0  0  0  0  0
    3.1487  -52.0804  -19.6909 O   0  0  0  0  0  0  0  0  0  0  0  0
 42 43  1  0  0  0
 43 24  1  0  0  0
 24 25  2  0  0  0
 25 26  1  0  0  0
 26 27  2  0  0  0
 27 28  1  0  0  0
 28 29  2  0  0  0
 29  1  1  0  0  0
  1  3  1  0  0  0
  3  4  2  0  0  0
  4  5  1  0  0  0
  5  6  2  0  0  0
  6  7  1  0  0  0
  6  8  1  0  0  0
  8 10  1  0  0  0
 10 12  1  0  0  0
 12 13  2  0  0  0
 13 14  1  0  0  0
 14 15  2  0  0  0
 15 16  1  0  0  0
 16 17  2  0  0  0
 17 18  1  0  0  0
 18 19  2  0  0  0
 18 20  2  0  0  0
 18 21  1  0  0  0
 21 22  1  0  0  0
 21 23  1  0  0  0
  8  9  2  0  0  0
 26 30  1  0  0  0
 30 31  1  0  0  0
 31 32  1  0  0  0
 32 33  1  0  0  0
 33 34  1  0  0  0
 34 35  1  0  0  0
 33 36  1  0  0  0
 36 37  1  0  0  0
 37 38  1  0  0  0
 38 39  1  0  0  0
 39 40  1  0  0  0
 40 41  1  0  0  0
 29 24  1  0  0  0
  9  3  1  0  0  0
 35 30  1  0  0  0
 41 36  1  0  0  0
 17 12  1  0  0  0
  1  2  1  0  0  0
 10 11  1  0  0  0
M  END
> <minimizedAffinity>
-7.84488

> <CNNscore>
0.3034030199

> <CNNaffinity>
7.1234064102

> <CNN_VS>
2.1612629890

> <CNNaffinity_variance>
0.1004828215

$$$$
[H]c1nc(N([H])c2c([H])c([H])c(N3C([H])([H])C([H])([H])C([H])(N4C([H])([H])C([H])([H])OC([H])([H])C4([H])[H])C([H])([H])C3([H])[H])c([H])c2OC([H])([H])[H])nc(N([H])c2c([H])c([H])c([H])c([H])c2S(=O)(=O)C([H])(C([H])([H])[H])C([H])([H])[H])c1Cl


 43 47  0  0  0  0  0  0  0  0999 V2000
   -0.4500  -52.3104  -22.6566 N   0  0  0  0  0  0  0  0  0  0  0  0
   -1.4402  -52.6411  -22.9782 H   0  0  0  0  0  0  0  0  0  0  0  0
    0.4961  -52.2702  -23.6983 C   0  0  0  0  0  0  0  0  0  0  0  0
    0.3284  -53.1784  -24.7252 N   0  0  0  0  0  0  0  0  0  0  0  0
    1.1082  -53.2507  -25.7838 C   0  0  0  0  0  0  0  0  0  0  0  0
    2.1662  -52.3777  -25.9026 C   0  0  0  0  0  0  0  0  0  0  0  0
    3.2400  -52.4047  -27.2720 Cl  0  0  0  0  0  0  0  0  0  0  0  0
    2.3936  -51.4258  -24.8925 C   0  0  0  0  0  0  0  0  0  0  0  0
    1.5257  -51.4478  -23.8517 N   0  0  0  0  0  0  0  0  0  0  0  0
    3.4928  -50.5763  -25.0391 N   0  0  0  0  0  0  0  0  0  0  0  0
    3.3505  -49.7713  -25.7260 H   0  0  0  0  0  0  0  0  0  0  0  0
    4.7617  -50.5746  -24.4269 C   0  0  0  0  0  0  0  0  0  0  0  0
    5.6745  -51.5830  -24.5940 C   0  0  0  0  0  0  0  0  0  0  0  0
    6.8768  -51.5628  -23.9195 C   0  0  0  0  0  0  0  0  0  0  0  0
    7.2069  -50.5441  -23.0616 C   0  0  0  0  0  0  0  0  0  0  0  0
    6.2951  -49.5134  -22.8798 C   0  0  0  0  0  0  0  0  0  0  0  0
    5.0924  -49.5243  -23.5483 C   0  0  0  0  0  0  0  0  0  0  0  0
    4.0268  -48.1819  -23.2728 S   0  0  0  0  0  0  0  0  0  0  0  0
    4.7255  -46.9213  -22.8641 O   0  0  0  0  0  0  0  0  0  0  0  0
    3.3565  -47.8345  -24.6080 O   0  0  0  0  0  0  0  0  0  0  0  0
    2.7601  -48.5708  -22.1190 C   0  0  0  0  0  0  0  0  0  0  0  0
    3.4067  -48.9430  -20.7600 C   0  0  0  0  0  0  0  0  0  0  0  0
    1.7609  -47.4626  -21.9262 C   0  0  0  0  0  0  0  0  0  0  0  0
   -0.7383  -52.9899  -20.3830 C   0  0  0  0  0  0  0  0  0  0  0  0
   -0.5900  -52.7247  -19.0425 C   0  0  0  0  0  0  0  0  0  0  0  0
   -0.0602  -51.5304  -18.5636 C   0  0  0  0  0  0  0  0  0  0  0  0
    0.3237  -50.5907  -19.4810 C   0  0  0  0  0  0  0  0  0  0  0  0
    0.1895  -50.8229  -20.8589 C   0  0  0  0  0  0  0  0  0  0  0  0
   -0.3369  -52.0122  -21.2988 C   0  0  0  0  0  0  0  0  0  0  0  0
    0.0763  -51.2574  -17.1762 N   0  0  0  0  0  0  0  0  0  0  0  0
    1.3606  -50.8150  -16.6273 C   0  0  0  0  0  0  0  0  0  0  0  0
    1.1273  -50.1752  -15.2597 C   0  0  0  0  0  0  0  0  0  0  0  0
   -0.0378  -49.2331  -15.3477 C   0  0  0  0  0  0  0  0  0  0  0  0
   -1.2824  -50.0855  -15.4752 C   0  0  0  0  0  0  0  0  0  0  0  0
   -0.9946  -51.3737  -16.2252 C   0  0  0  0  0  0  0  0  0  0  0  0
   -0.1631  -48.4354  -14.1587 N   0  0  0  0  0  0  0  0  0  0  0  0
   -1.5194  -47.8797  -14.0677 C   0  0  0  0  0  0  0  0  0  0  0  0
   -1.5761  -47.1246  -12.7512 C   0  0  0  0  0  0  0  0  0  0  0  0
   -0.6815  -46.0605  -12.7349 O   0  0  0  0  0  0  0  0  0  0  0  0
    0.5914  -46.6135  -12.8118 C   0  0  0  0  0  0  0  0  0  0  0  0
    0.7171  -47.2803  -14.1653 C   0  0  0  0  0  0  0  0  0  0  0  0
   -0.4491  -55.0348  -21.6335 C   0  0  0  0  0  0  0  0  0  0  0  0
   -1.2666  -54.1803  -20.8533 O   0  0  0  0  0  0  0  0  0  0  0  0
 42 43  1  0  0  0
 43 24  1  0  0  0
 24 25  2  0  0  0
 25 26  1  0  0  0
 26 27  2  0  0  0
 27 28  1  0  0  0
 28 29  2  0  0  0
 29  1  1  0  0  0
  1  3  1  0  0  0
  3  4  2  0  0  0
  4  5  1  0  0  0
  5  6  2  0  0  0
  6  7  1  0  0  0
  6  8  1  0  0  0
  8 10  1  0  0  0
 10 12  1  0  0  0
 12 13  2  0  0  0
 13 14  1  0  0  0
 14 15  2  0  0  0
 15 16  1  0  0  0
 16 17  2  0  0  0
 17 18  1  0  0  0
 18 19  2  0  0  0
 18 20  2  0  0  0
 18 21  1  0  0  0
 21 22  1  0  0  0
 21 23  1  0  0  0
  8  9  2  0  0  0
 26 30  1  0  0  0
 30 31  1  0  0  0
 31 32  1  0  0  0
 32 33  1  0  0  0
 33 34  1  0  0  0
 34 35  1  0  0  0
 33 36  1  0  0  0
 36 37  1  0  0  0
 37 38  1  0  0  0
 38 39  1  0  0  0
 39 40  1  0  0  0
 40 41  1  0  0  0
 29 24  1  0  0  0
  9  3  1  0  0  0
 35 30  1  0  0  0
 41 36  1  0  0  0
 17 12  1  0  0  0
  1  2  1  0  0  0
 10 11  1  0  0  0
M  END
> <minimizedAffinity>
-6.27382

> <CNNscore>
0.1714435220

> <CNNaffinity>
7.1639494896

> <CNN_VS>
1.2282127142

> <CNNaffinity_variance>
0.1912724376

$$$$
[H]c1nc(N([H])c2c([H])c([H])c(N3C([H])([H])C([H])([H])C([H])(N4C([H])([H])C([H])([H])OC([H])([H])C4([H])[H])C([H])([H])C3([H])[H])c([H])c2OC([H])([H])[H])nc(N([H])c2c([H])c([H])c([H])c([H])c2S(=O)(=O)C([H])(C([H])([H])[H])C([H])([H])[H])c1Cl


 43 47  0  0  0  0  0  0  0  0999 V2000
    0.5883  -52.5224  -18.9858 N   0  0  0  0  0  0  0  0  0  0  0  0
    0.3258  -53.2680  -18.2319 H   0  0  0  0  0  0  0  0  0  0  0  0
    0.3407  -52.9446  -20.3057 C   0  0  0  0  0  0  0  0  0  0  0  0
   -0.6759  -53.8624  -20.4840 N   0  0  0  0  0  0  0  0  0  0  0  0
   -1.0501  -54.3340  -21.6550 C   0  0  0  0  0  0  0  0  0  0  0  0
   -0.4056  -53.9027  -22.7927 C   0  0  0  0  0  0  0  0  0  0  0  0
   -0.8428  -54.4733  -24.3777 Cl  0  0  0  0  0  0  0  0  0  0  0  0
    0.6386  -52.9670  -22.6827 C   0  0  0  0  0  0  0  0  0  0  0  0
    0.9349  -52.5549  -21.4260 N   0  0  0  0  0  0  0  0  0  0  0  0
    1.2833  -52.5753  -23.8585 N   0  0  0  0  0  0  0  0  0  0  0  0
    1.2607  -53.2967  -24.6455 H   0  0  0  0  0  0  0  0  0  0  0  0
    1.9486  -51.3836  -24.2080 C   0  0  0  0  0  0  0  0  0  0  0  0
    2.2484  -50.4005  -23.3015 C   0  0  0  0  0  0  0  0  0  0  0  0
    2.8426  -49.2250  -23.7090 C   0  0  0  0  0  0  0  0  0  0  0  0
    3.1554  -48.9917  -25.0245 C   0  0  0  0  0  0  0  0  0  0  0  0
    2.8596  -49.9761  -25.9573 C   0  0  0  0  0  0  0  0  0  0  0  0
    2.2664  -51.1528  -25.5609 C   0  0  0  0  0  0  0  0  0  0  0  0
    1.9545  -52.3321  -26.7959 S   0  0  0  0  0  0  0  0  0  0  0  0
    2.9103  -52.2769  -27.9482 O   0  0  0  0  0  0  0  0  0  0  0  0
    2.1715  -53.7211  -26.1825 O   0  0  0  0  0  0  0  0  0  0  0  0
    0.2995  -52.2535  -27.3805 C   0  0  0  0  0  0  0  0  0  0  0  0
   -0.1557  -53.6718  -27.8109 C   0  0  0  0  0  0  0  0  0  0  0  0
   -0.6670  -51.6863  -26.3766 C   0  0  0  0  0  0  0  0  0  0  0  0
    2.4649  -51.0645  -18.7261 C   0  0  0  0  0  0  0  0  0  0  0  0
    2.9829  -49.8740  -18.2749 C   0  0  0  0  0  0  0  0  0  0  0  0
    2.2220  -48.9309  -17.5911 C   0  0  0  0  0  0  0  0  0  0  0  0
    0.9032  -49.2179  -17.3665 C   0  0  0  0  0  0  0  0  0  0  0  0
    0.3355  -50.4222  -17.8116 C   0  0  0  0  0  0  0  0  0  0  0  0
    1.1138  -51.3319  -18.4838 C   0  0  0  0  0  0  0  0  0  0  0  0
    2.7680  -47.7090  -17.1146 N   0  0  0  0  0  0  0  0  0  0  0  0
    2.4664  -47.2364  -15.7611 C   0  0  0  0  0  0  0  0  0  0  0  0
    3.4993  -46.1866  -15.3550 C   0  0  0  0  0  0  0  0  0  0  0  0
    4.8713  -46.6809  -15.7099 C   0  0  0  0  0  0  0  0  0  0  0  0
    4.9839  -46.6172  -17.2183 C   0  0  0  0  0  0  0  0  0  0  0  0
    3.6417  -46.8656  -17.8828 C   0  0  0  0  0  0  0  0  0  0  0  0
    5.8960  -45.8427  -15.1503 N   0  0  0  0  0  0  0  0  0  0  0  0
    6.8412  -46.6557  -14.3741 C   0  0  0  0  0  0  0  0  0  0  0  0
    7.9199  -45.7007  -13.8934 C   0  0  0  0  0  0  0  0  0  0  0  0
    7.4002  -44.7305  -13.0439 O   0  0  0  0  0  0  0  0  0  0  0  0
    6.5188  -43.9709  -13.8044 C   0  0  0  0  0  0  0  0  0  0  0  0
    5.3706  -44.8724  -14.2061 C   0  0  0  0  0  0  0  0  0  0  0  0
    4.0674  -51.5657  -20.4611 C   0  0  0  0  0  0  0  0  0  0  0  0
    3.2275  -51.9993  -19.4059 O   0  0  0  0  0  0  0  0  0  0  0  0
 42 43  1  0  0  0
 43 24  1  0  0  0
 24 25  2  0  0  0
 25 26  1  0  0  0
 26 27  2  0  0  0
 27 28  1  0  0  0
 28 29  2  0  0  0
 29  1  1  0  0  0
  1  3  1  0  0  0
  3  4  2  0  0  0
  4  5  1  0  0  0
  5  6  2  0  0  0
  6  7  1  0  0  0
  6  8  1  0  0  0
  8 10  1  0  0  0
 10 12  1  0  0  0
 12 13  2  0  0  0
 13 14  1  0  0  0
 14 15  2  0  0  0
 15 16  1  0  0  0
 16 17  2  0  0  0
 17 18  1  0  0  0
 18 19  2  0  0  0
 18 20  2  0  0  0
 18 21  1  0  0  0
 21 22  1  0  0  0
 21 23  1  0  0  0
  8  9  2  0  0  0
 26 30  1  0  0  0
 30 31  1  0  0  0
 31 32  1  0  0  0
 32 33  1  0  0  0
 33 34  1  0  0  0
 34 35  1  0  0  0
 33 36  1  0  0  0
 36 37  1  0  0  0
 37 38  1  0  0  0
 38 39  1  0  0  0
 39 40  1  0  0  0
 40 41  1  0  0  0
 29 24  1  0  0  0
  9  3  1  0  0  0
 35 30  1  0  0  0
 41 36  1  0  0  0
 17 12  1  0  0  0
  1  2  1  0  0  0
 10 11  1  0  0  0
M  END
> <minimizedAffinity>
-7.41050

> <CNNscore>
0.1659587026

> <CNNaffinity>
6.9911293983

> <CNN_VS>
1.1602387428

> <CNNaffinity_variance>
0.0978762954

$$$$
[H]c1nc(N([H])c2c([H])c([H])c(N3C([H])([H])C([H])([H])C([H])(N4C([H])([H])C([H])([H])OC([H])([H])C4([H])[H])C([H])([H])C3([H])[H])c([H])c2OC([H])([H])[H])nc(N([H])c2c([H])c([H])c([H])c([H])c2S(=O)(=O)C([H])(C([H])([H])[H])C([H])([H])[H])c1Cl


 43 47  0  0  0  0  0  0  0  0999 V2000
   -0.5283  -52.4853  -23.3482 N   0  0  0  0  0  0  0  0  0  0  0  0
   -1.4711  -52.8936  -23.7193 H   0  0  0  0  0  0  0  0  0  0  0  0
    0.4224  -52.2538  -24.3603 C   0  0  0  0  0  0  0  0  0  0  0  0
    0.3341  -53.0455  -25.4885 N   0  0  0  0  0  0  0  0  0  0  0  0
    1.1276  -52.9358  -26.5335 C   0  0  0  0  0  0  0  0  0  0  0  0
    2.1178  -51.9790  -26.5305 C   0  0  0  0  0  0  0  0  0  0  0  0
    3.2042  -51.7662  -27.8735 Cl  0  0  0  0  0  0  0  0  0  0  0  0
    2.2624  -51.1376  -25.4129 C   0  0  0  0  0  0  0  0  0  0  0  0
    1.3884  -51.3452  -24.3980 N   0  0  0  0  0  0  0  0  0  0  0  0
    3.2957  -50.1979  -25.4394 N   0  0  0  0  0  0  0  0  0  0  0  0
    3.0670  -49.2926  -25.9573 H   0  0  0  0  0  0  0  0  0  0  0  0
    4.5915  -50.2166  -24.8866 C   0  0  0  0  0  0  0  0  0  0  0  0
    5.1842  -51.3557  -24.4075 C   0  0  0  0  0  0  0  0  0  0  0  0
    6.4291  -51.3061  -23.8170 C   0  0  0  0  0  0  0  0  0  0  0  0
    7.1197  -50.1278  -23.6849 C   0  0  0  0  0  0  0  0  0  0  0  0
    6.5356  -48.9636  -24.1645 C   0  0  0  0  0  0  0  0  0  0  0  0
    5.2934  -49.0023  -24.7554 C   0  0  0  0  0  0  0  0  0  0  0  0
    4.6545  -47.4993  -25.3435 S   0  0  0  0  0  0  0  0  0  0  0  0
    3.2095  -47.2795  -25.0142 O   0  0  0  0  0  0  0  0  0  0  0  0
    5.3903  -46.3633  -24.6219 O   0  0  0  0  0  0  0  0  0  0  0  0
    4.9169  -47.3007  -27.0693 C   0  0  0  0  0  0  0  0  0  0  0  0
    6.1585  -48.1267  -27.4934 C   0  0  0  0  0  0  0  0  0  0  0  0
    3.7297  -47.6908  -27.9073 C   0  0  0  0  0  0  0  0  0  0  0  0
   -1.1249  -53.2209  -21.1533 C   0  0  0  0  0  0  0  0  0  0  0  0
   -1.0357  -53.0669  -19.7904 C   0  0  0  0  0  0  0  0  0  0  0  0
   -0.3235  -52.0314  -19.1931 C   0  0  0  0  0  0  0  0  0  0  0  0
    0.3086  -51.1370  -20.0131 C   0  0  0  0  0  0  0  0  0  0  0  0
    0.2426  -51.2595  -21.4100 C   0  0  0  0  0  0  0  0  0  0  0  0
   -0.4686  -52.2929  -21.9680 C   0  0  0  0  0  0  0  0  0  0  0  0
   -0.2481  -51.8700  -17.7836 N   0  0  0  0  0  0  0  0  0  0  0  0
    0.6995  -50.9219  -17.1925 C   0  0  0  0  0  0  0  0  0  0  0  0
    0.2744  -50.6176  -15.7570 C   0  0  0  0  0  0  0  0  0  0  0  0
   -1.2023  -50.3510  -15.7255 C   0  0  0  0  0  0  0  0  0  0  0  0
   -1.8928  -51.6799  -15.9475 C   0  0  0  0  0  0  0  0  0  0  0  0
   -1.0713  -52.5850  -16.8478 C   0  0  0  0  0  0  0  0  0  0  0  0
   -1.6197  -49.8391  -14.4490 N   0  0  0  0  0  0  0  0  0  0  0  0
   -3.0820  -49.7091  -14.4140 C   0  0  0  0  0  0  0  0  0  0  0  0
   -3.4282  -49.2404  -13.0114 C   0  0  0  0  0  0  0  0  0  0  0  0
   -2.8862  -47.9884  -12.7440 O   0  0  0  0  0  0  0  0  0  0  0  0
   -1.5049  -48.1416  -12.7731 C   0  0  0  0  0  0  0  0  0  0  0  0
   -1.1167  -48.5012  -14.1917 C   0  0  0  0  0  0  0  0  0  0  0  0
   -1.1627  -55.1385  -22.6197 C   0  0  0  0  0  0  0  0  0  0  0  0
   -1.8356  -54.2534  -21.7419 O   0  0  0  0  0  0  0  0  0  0  0  0
 42 43  1  0  0  0
 43 24  1  0  0  0
 24 25  2  0  0  0
 25 26  1  0  0  0
 26 27  2  0  0  0
 27 28  1  0  0  0
 28 29  2  0  0  0
 29  1  1  0  0  0
  1  3  1  0  0  0
  3  4  2  0  0  0
  4  5  1  0  0  0
  5  6  2  0  0  0
  6  7  1  0  0  0
  6  8  1  0  0  0
  8 10  1  0  0  0
 10 12  1  0  0  0
 12 13  2  0  0  0
 13 14  1  0  0  0
 14 15  2  0  0  0
 15 16  1  0  0  0
 16 17  2  0  0  0
 17 18  1  0  0  0
 18 19  2  0  0  0
 18 20  2  0  0  0
 18 21  1  0  0  0
 21 22  1  0  0  0
 21 23  1  0  0  0
  8  9  2  0  0  0
 26 30  1  0  0  0
 30 31  1  0  0  0
 31 32  1  0  0  0
 32 33  1  0  0  0
 33 34  1  0  0  0
 34 35  1  0  0  0
 33 36  1  0  0  0
 36 37  1  0  0  0
 37 38  1  0  0  0
 38 39  1  0  0  0
 39 40  1  0  0  0
 40 41  1  0  0  0
 29 24  1  0  0  0
  9  3  1  0  0  0
 35 30  1  0  0  0
 41 36  1  0  0  0
 17 12  1  0  0  0
  1  2  1  0  0  0
 10 11  1  0  0  0
M  END
> <minimizedAffinity>
-7.15311

> <CNNscore>
0.1170562655

> <CNNaffinity>
7.1653823853

> <CNN_VS>
0.8387529254

> <CNNaffinity_variance>
0.1382920146

$$$$
[H]c1nc(N([H])c2c([H])c([H])c(N3C([H])([H])C([H])([H])C([H])(N4C([H])([H])C([H])([H])OC([H])([H])C4([H])[H])C([H])([H])C3([H])[H])c([H])c2OC([H])([H])[H])nc(N([H])c2c([H])c([H])c([H])c([H])c2S(=O)(=O)C([H])(C([H])([H])[H])C([H])([H])[H])c1Cl


 43 47  0  0  0  0  0  0  0  0999 V2000
   -0.6595  -52.6909  -23.5228 N   0  0  0  0  0  0  0  0  0  0  0  0
   -1.6633  -52.9413  -23.8734 H   0  0  0  0  0  0  0  0  0  0  0  0
    0.3080  -52.6809  -24.5454 C   0  0  0  0  0  0  0  0  0  0  0  0
   -0.0190  -53.3358  -25.7165 N   0  0  0  0  0  0  0  0  0  0  0  0
    0.7621  -53.3938  -26.7749 C   0  0  0  0  0  0  0  0  0  0  0  0
    1.9895  -52.7706  -26.7419 C   0  0  0  0  0  0  0  0  0  0  0  0
    3.0781  -52.7962  -28.0995 Cl  0  0  0  0  0  0  0  0  0  0  0  0
    2.3849  -52.0841  -25.5799 C   0  0  0  0  0  0  0  0  0  0  0  0
    1.4977  -52.0938  -24.5553 N   0  0  0  0  0  0  0  0  0  0  0  0
    3.6482  -51.4878  -25.5785 N   0  0  0  0  0  0  0  0  0  0  0  0
    4.4612  -52.1564  -25.7575 H   0  0  0  0  0  0  0  0  0  0  0  0
    4.0505  -50.1492  -25.4018 C   0  0  0  0  0  0  0  0  0  0  0  0
    3.4690  -49.0994  -26.0637 C   0  0  0  0  0  0  0  0  0  0  0  0
    3.9450  -47.8156  -25.9026 C   0  0  0  0  0  0  0  0  0  0  0  0
    5.0092  -47.5371  -25.0825 C   0  0  0  0  0  0  0  0  0  0  0  0
    5.6110  -48.5875  -24.4033 C   0  0  0  0  0  0  0  0  0  0  0  0
    5.1436  -49.8725  -24.5573 C   0  0  0  0  0  0  0  0  0  0  0  0
    5.9468  -51.1161  -23.6509 S   0  0  0  0  0  0  0  0  0  0  0  0
    5.9546  -52.4543  -24.3243 O   0  0  0  0  0  0  0  0  0  0  0  0
    7.4278  -50.7326  -23.5404 O   0  0  0  0  0  0  0  0  0  0  0  0
    5.3055  -51.2642  -22.0219 C   0  0  0  0  0  0  0  0  0  0  0  0
    5.9836  -50.2093  -21.1103 C   0  0  0  0  0  0  0  0  0  0  0  0
    3.8095  -51.1207  -21.9488 C   0  0  0  0  0  0  0  0  0  0  0  0
   -1.1354  -53.3733  -21.2818 C   0  0  0  0  0  0  0  0  0  0  0  0
   -0.9992  -53.1674  -19.9297 C   0  0  0  0  0  0  0  0  0  0  0  0
   -0.3108  -52.0816  -19.3973 C   0  0  0  0  0  0  0  0  0  0  0  0
    0.2479  -51.1904  -20.2723 C   0  0  0  0  0  0  0  0  0  0  0  0
    0.1322  -51.3650  -21.6604 C   0  0  0  0  0  0  0  0  0  0  0  0
   -0.5538  -52.4473  -22.1536 C   0  0  0  0  0  0  0  0  0  0  0  0
   -0.1869  -51.8672  -17.9984 N   0  0  0  0  0  0  0  0  0  0  0  0
    0.8241  -50.9462  -17.4730 C   0  0  0  0  0  0  0  0  0  0  0  0
    0.4562  -50.5624  -16.0407 C   0  0  0  0  0  0  0  0  0  0  0  0
   -1.0036  -50.2186  -15.9813 C   0  0  0  0  0  0  0  0  0  0  0  0
   -1.7666  -51.5178  -16.1289 C   0  0  0  0  0  0  0  0  0  0  0  0
   -1.0181  -52.5001  -17.0118 C   0  0  0  0  0  0  0  0  0  0  0  0
   -1.3577  -49.6343  -14.7167 N   0  0  0  0  0  0  0  0  0  0  0  0
   -2.4802  -50.3699  -14.1207 C   0  0  0  0  0  0  0  0  0  0  0  0
   -2.7269  -49.7324  -12.7644 C   0  0  0  0  0  0  0  0  0  0  0  0
   -3.1117  -48.4022  -12.8888 O   0  0  0  0  0  0  0  0  0  0  0  0
   -2.0303  -47.7285  -13.4446 C   0  0  0  0  0  0  0  0  0  0  0  0
   -1.8297  -48.2669  -14.8454 C   0  0  0  0  0  0  0  0  0  0  0  0
   -1.1670  -55.3019  -22.7339 C   0  0  0  0  0  0  0  0  0  0  0  0
   -1.8221  -54.4557  -21.8055 O   0  0  0  0  0  0  0  0  0  0  0  0
 42 43  1  0  0  0
 43 24  1  0  0  0
 24 25  2  0  0  0
 25 26  1  0  0  0
 26 27  2  0  0  0
 27 28  1  0  0  0
 28 29  2  0  0  0
 29  1  1  0  0  0
  1  3  1  0  0  0
  3  4  2  0  0  0
  4  5  1  0  0  0
  5  6  2  0  0  0
  6  7  1  0  0  0
  6  8  1  0  0  0
  8 10  1  0  0  0
 10 12  1  0  0  0
 12 13  2  0  0  0
 13 14  1  0  0  0
 14 15  2  0  0  0
 15 16  1  0  0  0
 16 17  2  0  0  0
 17 18  1  0  0  0
 18 19  2  0  0  0
 18 20  2  0  0  0
 18 21  1  0  0  0
 21 22  1  0  0  0
 21 23  1  0  0  0
  8  9  2  0  0  0
 26 30  1  0  0  0
 30 31  1  0  0  0
 31 32  1  0  0  0
 32 33  1  0  0  0
 33 34  1  0  0  0
 34 35  1  0  0  0
 33 36  1  0  0  0
 36 37  1  0  0  0
 37 38  1  0  0  0
 38 39  1  0  0  0
 39 40  1  0  0  0
 40 41  1  0  0  0
 29 24  1  0  0  0
  9  3  1  0  0  0
 35 30  1  0  0  0
 41 36  1  0  0  0
 17 12  1  0  0  0
  1  2  1  0  0  0
 10 11  1  0  0  0
M  END
> <minimizedAffinity>
-8.30000

> <CNNscore>
0.1051860526

> <CNNaffinity>
7.1810274124

> <CNN_VS>
0.7553439140

> <CNNaffinity_variance>
0.2562671602

$$$$
[H]c1nc(N([H])c2c([H])c([H])c(N3C([H])([H])C([H])([H])C([H])(N4C([H])([H])C([H])([H])OC([H])([H])C4([H])[H])C([H])([H])C3([H])[H])c([H])c2OC([H])([H])[H])nc(N([H])c2c([H])c([H])c([H])c([H])c2S(=O)(=O)C([H])(C([H])([H])[H])C([H])([H])[H])c1Cl


 43 47  0  0  0  0  0  0  0  0999 V2000
    0.0682  -53.0162  -20.1316 N   0  0  0  0  0  0  0  0  0  0  0  0
   -0.3259  -54.0020  -20.3887 H   0  0  0  0  0  0  0  0  0  0  0  0
   -0.3131  -52.5738  -18.8507 C   0  0  0  0  0  0  0  0  0  0  0  0
   -1.5401  -53.0038  -18.3847 N   0  0  0  0  0  0  0  0  0  0  0  0
   -2.0281  -52.7033  -17.1993 C   0  0  0  0  0  0  0  0  0  0  0  0
   -1.2906  -51.9120  -16.3474 C   0  0  0  0  0  0  0  0  0  0  0  0
   -1.8618  -51.4736  -14.7630 Cl  0  0  0  0  0  0  0  0  0  0  0  0
   -0.0310  -51.4406  -16.7589 C   0  0  0  0  0  0  0  0  0  0  0  0
    0.3651  -51.8149  -17.9999 N   0  0  0  0  0  0  0  0  0  0  0  0
    0.6733  -50.6195  -15.8750 N   0  0  0  0  0  0  0  0  0  0  0  0
    0.3387  -49.6061  -15.8391 H   0  0  0  0  0  0  0  0  0  0  0  0
    1.7428  -50.8892  -14.9984 C   0  0  0  0  0  0  0  0  0  0  0  0
    1.7375  -51.9329  -14.1103 C   0  0  0  0  0  0  0  0  0  0  0  0
    2.7828  -52.1127  -13.2295 C   0  0  0  0  0  0  0  0  0  0  0  0
    3.8606  -51.2639  -13.2044 C   0  0  0  0  0  0  0  0  0  0  0  0
    3.8840  -50.2011  -14.0969 C   0  0  0  0  0  0  0  0  0  0  0  0
    2.8456  -50.0128  -14.9800 C   0  0  0  0  0  0  0  0  0  0  0  0
    2.9744  -48.6690  -16.0713 S   0  0  0  0  0  0  0  0  0  0  0  0
    1.7813  -47.7630  -16.0677 O   0  0  0  0  0  0  0  0  0  0  0  0
    4.1308  -47.7839  -15.5898 O   0  0  0  0  0  0  0  0  0  0  0  0
    3.3363  -49.1835  -17.7118 C   0  0  0  0  0  0  0  0  0  0  0  0
    4.3980  -48.2318  -18.3208 C   0  0  0  0  0  0  0  0  0  0  0  0
    3.8100  -50.6085  -17.8049 C   0  0  0  0  0  0  0  0  0  0  0  0
    0.3506  -52.4114  -22.4270 C   0  0  0  0  0  0  0  0  0  0  0  0
    1.0879  -51.7811  -23.4009 C   0  0  0  0  0  0  0  0  0  0  0  0
    2.2999  -51.1496  -23.1396 C   0  0  0  0  0  0  0  0  0  0  0  0
    2.7628  -51.1670  -21.8522 C   0  0  0  0  0  0  0  0  0  0  0  0
    2.0397  -51.7992  -20.8284 C   0  0  0  0  0  0  0  0  0  0  0  0
    0.8467  -52.4133  -21.1195 C   0  0  0  0  0  0  0  0  0  0  0  0
    3.0638  -50.5130  -24.1543 N   0  0  0  0  0  0  0  0  0  0  0  0
    2.6486  -50.5894  -25.5571 C   0  0  0  0  0  0  0  0  0  0  0  0
    3.3498  -49.4863  -26.3480 C   0  0  0  0  0  0  0  0  0  0  0  0
    3.2554  -48.1965  -25.5863 C   0  0  0  0  0  0  0  0  0  0  0  0
    4.1822  -48.3213  -24.3957 C   0  0  0  0  0  0  0  0  0  0  0  0
    4.2591  -49.7556  -23.9043 C   0  0  0  0  0  0  0  0  0  0  0  0
    3.6952  -47.0813  -26.3792 N   0  0  0  0  0  0  0  0  0  0  0  0
    2.6110  -46.0994  -26.5095 C   0  0  0  0  0  0  0  0  0  0  0  0
    3.1924  -44.9333  -27.2898 C   0  0  0  0  0  0  0  0  0  0  0  0
    3.5721  -45.3161  -28.5713 O   0  0  0  0  0  0  0  0  0  0  0  0
    4.6035  -46.2355  -28.4195 C   0  0  0  0  0  0  0  0  0  0  0  0
    4.0257  -47.4600  -27.7417 C   0  0  0  0  0  0  0  0  0  0  0  0
   -0.8452  -54.3125  -23.3130 C   0  0  0  0  0  0  0  0  0  0  0  0
   -0.8548  -53.0385  -22.6934 O   0  0  0  0  0  0  0  0  0  0  0  0
 42 43  1  0  0  0
 43 24  1  0  0  0
 24 25  2  0  0  0
 25 26  1  0  0  0
 26 27  2  0  0  0
 27 28  1  0  0  0
 28 29  2  0  0  0
 29  1  1  0  0  0
  1  3  1  0  0  0
  3  4  2  0  0  0
  4  5  1  0  0  0
  5  6  2  0  0  0
  6  7  1  0  0  0
  6  8  1  0  0  0
  8 10  1  0  0  0
 10 12  1  0  0  0
 12 13  2  0  0  0
 13 14  1  0  0  0
 14 15  2  0  0  0
 15 16  1  0  0  0
 16 17  2  0  0  0
 17 18  1  0  0  0
 18 19  2  0  0  0
 18 20  2  0  0  0
 18 21  1  0  0  0
 21 22  1  0  0  0
 21 23  1  0  0  0
  8  9  2  0  0  0
 26 30  1  0  0  0
 30 31  1  0  0  0
 31 32  1  0  0  0
 32 33  1  0  0  0
 33 34  1  0  0  0
 34 35  1  0  0  0
 33 36  1  0  0  0
 36 37  1  0  0  0
 37 38  1  0  0  0
 38 39  1  0  0  0
 39 40  1  0  0  0
 40 41  1  0  0  0
 29 24  1  0  0  0
  9  3  1  0  0  0
 35 30  1  0  0  0
 41 36  1  0  0  0
 17 12  1  0  0  0
  1  2  1  0  0  0
 10 11  1  0  0  0
M  END
> <minimizedAffinity>
-6.70183

> <CNNscore>
0.0626780540

> <CNNaffinity>
6.8856415749

> <CNN_VS>
0.4315786064

> <CNNaffinity_variance>
0.0513271317

$$$$
[H]c1nc(N([H])c2c([H])c([H])c(N3C([H])([H])C([H])([H])C([H])(N4C([H])([H])C([H])([H])OC([H])([H])C4([H])[H])C([H])([H])C3([H])[H])c([H])c2OC([H])([H])[H])nc(N([H])c2c([H])c([H])c([H])c([H])c2S(=O)(=O)C([H])(C([H])([H])[H])C([H])([H])[H])c1Cl


 43 47  0  0  0  0  0  0  0  0999 V2000
    0.0500  -52.4640  -23.2511 N   0  0  0  0  0  0  0  0  0  0  0  0
   -0.7218  -53.1294  -23.6445 H   0  0  0  0  0  0  0  0  0  0  0  0
    0.9189  -51.9631  -24.2390 C   0  0  0  0  0  0  0  0  0  0  0  0
    0.9183  -52.6162  -25.4559 N   0  0  0  0  0  0  0  0  0  0  0  0
    1.6500  -52.2557  -26.4896 C   0  0  0  0  0  0  0  0  0  0  0  0
    2.4780  -51.1611  -26.3805 C   0  0  0  0  0  0  0  0  0  0  0  0
    3.4728  -50.6169  -27.7008 Cl  0  0  0  0  0  0  0  0  0  0  0  0
    2.5261  -50.4490  -25.1685 C   0  0  0  0  0  0  0  0  0  0  0  0
    1.7292  -50.9146  -24.1759 N   0  0  0  0  0  0  0  0  0  0  0  0
    3.3984  -49.3606  -25.0914 N   0  0  0  0  0  0  0  0  0  0  0  0
    4.2053  -49.3806  -25.7905 H   0  0  0  0  0  0  0  0  0  0  0  0
    3.3992  -48.2194  -24.2653 C   0  0  0  0  0  0  0  0  0  0  0  0
    3.0244  -48.2493  -22.9474 C   0  0  0  0  0  0  0  0  0  0  0  0
    2.9814  -47.0905  -22.2016 C   0  0  0  0  0  0  0  0  0  0  0  0
    3.3079  -45.8717  -22.7407 C   0  0  0  0  0  0  0  0  0  0  0  0
    3.6904  -45.8215  -24.0741 C   0  0  0  0  0  0  0  0  0  0  0  0
    3.7365  -46.9723  -24.8272 C   0  0  0  0  0  0  0  0  0  0  0  0
    4.2469  -46.8123  -26.4786 S   0  0  0  0  0  0  0  0  0  0  0  0
    5.3764  -47.7199  -26.8593 O   0  0  0  0  0  0  0  0  0  0  0  0
    3.0816  -47.2524  -27.3736 O   0  0  0  0  0  0  0  0  0  0  0  0
    4.6438  -45.1506  -26.8886 C   0  0  0  0  0  0  0  0  0  0  0  0
    6.1851  -44.9825  -26.8948 C   0  0  0  0  0  0  0  0  0  0  0  0
    4.0730  -44.7033  -28.2069 C   0  0  0  0  0  0  0  0  0  0  0  0
   -0.1807  -53.3854  -21.0574 C   0  0  0  0  0  0  0  0  0  0  0  0
   -0.1743  -53.2079  -19.6944 C   0  0  0  0  0  0  0  0  0  0  0  0
    0.0159  -51.9662  -19.0961 C   0  0  0  0  0  0  0  0  0  0  0  0
    0.2025  -50.8862  -19.9152 C   0  0  0  0  0  0  0  0  0  0  0  0
    0.2036  -51.0252  -21.3121 C   0  0  0  0  0  0  0  0  0  0  0  0
    0.0132  -52.2647  -21.8711 C   0  0  0  0  0  0  0  0  0  0  0  0
    0.0065  -51.7880  -17.6867 N   0  0  0  0  0  0  0  0  0  0  0  0
    0.9656  -50.8862  -17.0438 C   0  0  0  0  0  0  0  0  0  0  0  0
    0.4639  -50.5368  -15.6437 C   0  0  0  0  0  0  0  0  0  0  0  0
   -0.9938  -50.1864  -15.7148 C   0  0  0  0  0  0  0  0  0  0  0  0
   -1.7433  -51.4772  -15.9678 C   0  0  0  0  0  0  0  0  0  0  0  0
   -0.9171  -52.4410  -16.8004 C   0  0  0  0  0  0  0  0  0  0  0  0
   -1.4650  -49.6325  -14.4751 N   0  0  0  0  0  0  0  0  0  0  0  0
   -2.7288  -50.2723  -14.0876 C   0  0  0  0  0  0  0  0  0  0  0  0
   -3.1020  -49.6816  -12.7391 C   0  0  0  0  0  0  0  0  0  0  0  0
   -3.3310  -48.3132  -12.8277 O   0  0  0  0  0  0  0  0  0  0  0  0
   -2.1197  -47.7324  -13.1850 C   0  0  0  0  0  0  0  0  0  0  0  0
   -1.7756  -48.2175  -14.5774 C   0  0  0  0  0  0  0  0  0  0  0  0
   -1.6383  -54.9360  -22.1978 C   0  0  0  0  0  0  0  0  0  0  0  0
   -0.3709  -54.6238  -21.6470 O   0  0  0  0  0  0  0  0  0  0  0  0
 42 43  1  0  0  0
 43 24  1  0  0  0
 24 25  2  0  0  0
 25 26  1  0  0  0
 26 27  2  0  0  0
 27 28  1  0  0  0
 28 29  2  0  0  0
 29  1  1  0  0  0
  1  3  1  0  0  0
  3  4  2  0  0  0
  4  5  1  0  0  0
  5  6  2  0  0  0
  6  7  1  0  0  0
  6  8  1  0  0  0
  8 10  1  0  0  0
 10 12  1  0  0  0
 12 13  2  0  0  0
 13 14  1  0  0  0
 14 15  2  0  0  0
 15 16  1  0  0  0
 16 17  2  0  0  0
 17 18  1  0  0  0
 18 19  2  0  0  0
 18 20  2  0  0  0
 18 21  1  0  0  0
 21 22  1  0  0  0
 21 23  1  0  0  0
  8  9  2  0  0  0
 26 30  1  0  0  0
 30 31  1  0  0  0
 31 32  1  0  0  0
 32 33  1  0  0  0
 33 34  1  0  0  0
 34 35  1  0  0  0
 33 36  1  0  0  0
 36 37  1  0  0  0
 37 38  1  0  0  0
 38 39  1  0  0  0
 39 40  1  0  0  0
 40 41  1  0  0  0
 29 24  1  0  0  0
  9  3  1  0  0  0
 35 30  1  0  0  0
 41 36  1  0  0  0
 17 12  1  0  0  0
  1  2  1  0  0  0
 10 11  1  0  0  0
M  END
> <minimizedAffinity>
-6.67024

> <CNNscore>
0.0437782742

> <CNNaffinity>
6.8238997459

> <CNN_VS>
0.2987385690

> <CNNaffinity_variance>
0.0470245704

$$$$
[H]c1nc(N([H])c2c([H])c([H])c(N3C([H])([H])C([H])([H])C([H])(N4C([H])([H])C([H])([H])OC([H])([H])C4([H])[H])C([H])([H])C3([H])[H])c([H])c2OC([H])([H])[H])nc(N([H])c2c([H])c([H])c([H])c([H])c2S(=O)(=O)C([H])(C([H])([H])[H])C([H])([H])[H])c1Cl


 43 47  0  0  0  0  0  0  0  0999 V2000
   -0.1475  -52.4628  -23.0078 N   0  0  0  0  0  0  0  0  0  0  0  0
   -1.1305  -52.9057  -23.1832 H   0  0  0  0  0  0  0  0  0  0  0  0
    0.7036  -52.5195  -24.1277 C   0  0  0  0  0  0  0  0  0  0  0  0
    0.2014  -53.1314  -25.2594 N   0  0  0  0  0  0  0  0  0  0  0  0
    0.8585  -53.2403  -26.3953 C   0  0  0  0  0  0  0  0  0  0  0  0
    2.1296  -52.7197  -26.4913 C   0  0  0  0  0  0  0  0  0  0  0  0
    3.0623  -52.8177  -27.9574 Cl  0  0  0  0  0  0  0  0  0  0  0  0
    2.7012  -52.0817  -25.3758 C   0  0  0  0  0  0  0  0  0  0  0  0
    1.9299  -52.0314  -24.2625 N   0  0  0  0  0  0  0  0  0  0  0  0
    4.0023  -51.5905  -25.5073 N   0  0  0  0  0  0  0  0  0  0  0  0
    4.4627  -51.7839  -26.4511 H   0  0  0  0  0  0  0  0  0  0  0  0
    4.8212  -50.8625  -24.6217 C   0  0  0  0  0  0  0  0  0  0  0  0
    5.5127  -51.4451  -23.5918 C   0  0  0  0  0  0  0  0  0  0  0  0
    6.2481  -50.6767  -22.7145 C   0  0  0  0  0  0  0  0  0  0  0  0
    6.3181  -49.3116  -22.8334 C   0  0  0  0  0  0  0  0  0  0  0  0
    5.6246  -48.7034  -23.8707 C   0  0  0  0  0  0  0  0  0  0  0  0
    4.8876  -49.4614  -24.7516 C   0  0  0  0  0  0  0  0  0  0  0  0
    4.0725  -48.6137  -26.0284 S   0  0  0  0  0  0  0  0  0  0  0  0
    4.3926  -49.1223  -27.4007 O   0  0  0  0  0  0  0  0  0  0  0  0
    2.5672  -48.8610  -25.8682 O   0  0  0  0  0  0  0  0  0  0  0  0
    4.3453  -46.8799  -25.9487 C   0  0  0  0  0  0  0  0  0  0  0  0
    5.4485  -46.4913  -26.9664 C   0  0  0  0  0  0  0  0  0  0  0  0
    3.1062  -46.0636  -26.1977 C   0  0  0  0  0  0  0  0  0  0  0  0
   -0.1494  -52.8145  -20.6434 C   0  0  0  0  0  0  0  0  0  0  0  0
    0.0871  -52.3349  -19.3771 C   0  0  0  0  0  0  0  0  0  0  0  0
    0.5154  -51.0342  -19.1307 C   0  0  0  0  0  0  0  0  0  0  0  0
    0.7036  -50.2107  -20.2070 C   0  0  0  0  0  0  0  0  0  0  0  0
    0.4739  -50.6621  -21.5163 C   0  0  0  0  0  0  0  0  0  0  0  0
    0.0518  -51.9518  -21.7255 C   0  0  0  0  0  0  0  0  0  0  0  0
    0.7435  -50.5409  -17.8180 N   0  0  0  0  0  0  0  0  0  0  0  0
    1.6363  -49.4009  -17.5958 C   0  0  0  0  0  0  0  0  0  0  0  0
    1.3573  -48.8075  -16.2159 C   0  0  0  0  0  0  0  0  0  0  0  0
   -0.1255  -48.6722  -16.0274 C   0  0  0  0  0  0  0  0  0  0  0  0
   -0.6743  -50.0717  -15.8476 C   0  0  0  0  0  0  0  0  0  0  0  0
    0.1327  -51.0865  -16.6373 C   0  0  0  0  0  0  0  0  0  0  0  0
   -0.4411  -47.9143  -14.8476 N   0  0  0  0  0  0  0  0  0  0  0  0
   -1.7723  -47.3087  -14.9812 C   0  0  0  0  0  0  0  0  0  0  0  0
   -2.0452  -46.6007  -13.6656 C   0  0  0  0  0  0  0  0  0  0  0  0
   -1.1348  -45.5744  -13.4405 O   0  0  0  0  0  0  0  0  0  0  0  0
    0.1120  -46.1746  -13.3080 C   0  0  0  0  0  0  0  0  0  0  0  0
    0.4624  -46.7957  -14.6436 C   0  0  0  0  0  0  0  0  0  0  0  0
   -1.9597  -54.3572  -21.0579 C   0  0  0  0  0  0  0  0  0  0  0  0
   -0.5759  -54.1101  -20.8822 O   0  0  0  0  0  0  0  0  0  0  0  0
 42 43  1  0  0  0
 43 24  1  0  0  0
 24 25  2  0  0  0
 25 26  1  0  0  0
 26 27  2  0  0  0
 27 28  1  0  0  0
 28 29  2  0  0  0
 29  1  1  0  0  0
  1  3  1  0  0  0
  3  4  2  0  0  0
  4  5  1  0  0  0
  5  6  2  0  0  0
  6  7  1  0  0  0
  6  8  1  0  0  0
  8 10  1  0  0  0
 10 12  1  0  0  0
 12 13  2  0  0  0
 13 14  1  0  0  0
 14 15  2  0  0  0
 15 16  1  0  0  0
 16 17  2  0  0  0
 17 18  1  0  0  0
 18 19  2  0  0  0
 18 20  2  0  0  0
 18 21  1  0  0  0
 21 22  1  0  0  0
 21 23  1  0  0  0
  8  9  2  0  0  0
 26 30  1  0  0  0
 30 31  1  0  0  0
 31 32  1  0  0  0
 32 33  1  0  0  0
 33 34  1  0  0  0
 34 35  1  0  0  0
 33 36  1  0  0  0
 36 37  1  0  0  0
 37 38  1  0  0  0
 38 39  1  0  0  0
 39 40  1  0  0  0
 40 41  1  0  0  0
 29 24  1  0  0  0
  9  3  1  0  0  0
 35 30  1  0  0  0
 41 36  1  0  0  0
 17 12  1  0  0  0
  1  2  1  0  0  0
 10 11  1  0  0  0
M  END
> <minimizedAffinity>
-6.90715

> <CNNscore>
0.0426399224

> <CNNaffinity>
6.6474256516

> <CNN_VS>
0.2834457159

> <CNNaffinity_variance>
0.2857321799

$$$$
[H]c1nc(N([H])c2c([H])c([H])c(N3C([H])([H])C([H])([H])C([H])([H])[C@@]([H])(N4C([H])([H])C([H])([H])C([H])([H])C4([H])[H])C3([H])[H])c([H])c2OC([H])([H])[H])nc(N([H])c2c([H])c([H])c([H])c([H])c2S(=O)(=O)C(C([H])([H])[H])(C([H])([H])[H])C([H])([H])[H])c1Cl


 43 47  0  0  0  0  0  0  0  0999 V2000
    0.2883  -52.7211  -21.8665 C   0  0  0  0  0  0  0  0  0  0  0  0
   -0.6256  -53.1133  -22.7449 N   0  0  0  0  0  0  0  0  0  0  0  0
   -0.6183  -52.7687  -24.0339 C   0  0  0  0  0  0  0  0  0  0  0  0
    0.3994  -51.9591  -24.4680 C   0  0  0  0  0  0  0  0  0  0  0  0
    0.4477  -51.4955  -26.1274 Cl  0  0  0  0  0  0  0  0  0  0  0  0
    1.4144  -51.4949  -23.5965 C   0  0  0  0  0  0  0  0  0  0  0  0
    1.2708  -51.9239  -22.3427 N   0  0  0  0  0  0  0  0  0  0  0  0
    0.2911  -53.0756  -20.5157 N   0  0  0  0  0  0  0  0  0  0  0  0
   -0.0278  -54.0903  -20.3129 H   0  0  0  0  0  0  0  0  0  0  0  0
   -0.2445  -52.1951  -18.3532 C   0  0  0  0  0  0  0  0  0  0  0  0
    0.0530  -51.4456  -17.2532 C   0  0  0  0  0  0  0  0  0  0  0  0
    1.2219  -50.7202  -17.1093 C   0  0  0  0  0  0  0  0  0  0  0  0
    2.1021  -50.7795  -18.1411 C   0  0  0  0  0  0  0  0  0  0  0  0
    1.8172  -51.5477  -19.2898 C   0  0  0  0  0  0  0  0  0  0  0  0
    0.6631  -52.2639  -19.4321 C   0  0  0  0  0  0  0  0  0  0  0  0
    1.4441  -49.9590  -15.9312 N   0  0  0  0  0  0  0  0  0  0  0  0
    0.5377  -50.0553  -14.8040 C   0  0  0  0  0  0  0  0  0  0  0  0
    0.8411  -48.9053  -13.8683 C   0  0  0  0  0  0  0  0  0  0  0  0
    0.8996  -47.6189  -14.6416 C   0  0  0  0  0  0  0  0  0  0  0  0
    1.9773  -47.6539  -15.6646 C   0  0  0  0  0  0  0  0  0  0  0  0
    2.5713  -49.0651  -15.7776 C   0  0  0  0  0  0  0  0  0  0  0  0
    2.9715  -46.6446  -15.5333 N   0  0  0  0  0  0  0  0  0  0  0  0
    4.2532  -47.0548  -15.0760 C   0  0  0  0  0  0  0  0  0  0  0  0
    5.2265  -46.6206  -16.1485 C   0  0  0  0  0  0  0  0  0  0  0  0
    4.5697  -45.4444  -16.7994 C   0  0  0  0  0  0  0  0  0  0  0  0
    3.0931  -45.7058  -16.5855 C   0  0  0  0  0  0  0  0  0  0  0  0
   -2.2764  -53.0112  -17.2925 C   0  0  0  0  0  0  0  0  0  0  0  0
   -1.4435  -52.8968  -18.4202 O   0  0  0  0  0  0  0  0  0  0  0  0
    2.4164  -50.6802  -24.1241 N   0  0  0  0  0  0  0  0  0  0  0  0
    2.0830  -49.7944  -24.5971 H   0  0  0  0  0  0  0  0  0  0  0  0
    3.8039  -50.8712  -24.1088 C   0  0  0  0  0  0  0  0  0  0  0  0
    4.3918  -52.1009  -24.3216 C   0  0  0  0  0  0  0  0  0  0  0  0
    5.7745  -52.2690  -24.2715 C   0  0  0  0  0  0  0  0  0  0  0  0
    6.5688  -51.1951  -24.0050 C   0  0  0  0  0  0  0  0  0  0  0  0
    6.0091  -49.9358  -23.7846 C   0  0  0  0  0  0  0  0  0  0  0  0
    4.6447  -49.7687  -23.8351 C   0  0  0  0  0  0  0  0  0  0  0  0
    3.9666  -48.2007  -23.5832 S   0  0  0  0  0  0  0  0  0  0  0  0
    4.8900  -47.4203  -22.6652 O   0  0  0  0  0  0  0  0  0  0  0  0
    2.6132  -48.2317  -22.9143 O   0  0  0  0  0  0  0  0  0  0  0  0
    3.8761  -47.2332  -25.0781 C   0  0  0  0  0  0  0  0  0  0  0  0
    3.0063  -45.9918  -24.8074 C   0  0  0  0  0  0  0  0  0  0  0  0
    5.2205  -46.6898  -25.4964 C   0  0  0  0  0  0  0  0  0  0  0  0
    3.2393  -47.9496  -26.2211 C   0  0  0  0  0  0  0  0  0  0  0  0
 27 28  1  0  0  0
 28 10  1  0  0  0
 10 11  2  0  0  0
 11 12  1  0  0  0
 12 13  2  0  0  0
 13 14  1  0  0  0
 14 15  2  0  0  0
 15  8  1  0  0  0
  8  1  1  0  0  0
  1  2  2  0  0  0
  2  3  1  0  0  0
  3  4  2  0  0  0
  4  5  1  0  0  0
  4  6  1  0  0  0
  6 29  1  0  0  0
 29 31  1  0  0  0
 31 32  2  0  0  0
 32 33  1  0  0  0
 33 34  2  0  0  0
 34 35  1  0  0  0
 35 36  2  0  0  0
 36 37  1  0  0  0
 37 38  2  0  0  0
 37 39  2  0  0  0
 37 40  1  0  0  0
 40 41  1  0  0  0
 40 42  1  0  0  0
 40 43  1  0  0  0
  6  7  2  0  0  0
 12 16  1  0  0  0
 16 17  1  0  0  0
 17 18  1  0  0  0
 18 19  1  0  0  0
 19 20  1  0  0  0
 20 21  1  0  0  0
 20 22  1  0  0  0
 22 23  1  0  0  0
 23 24  1  0  0  0
 24 25  1  0  0  0
 25 26  1  0  0  0
 15 10  1  0  0  0
  7  1  1  0  0  0
 21 16  1  0  0  0
 26 22  1  0  0  0
 36 31  1  0  0  0
  8  9  1  0  0  0
 29 30  1  0  0  0
M  END
> <minimizedAffinity>
-6.57284

> <CNNscore>
0.2165611982

> <CNNaffinity>
7.3568029404

> <CNN_VS>
1.5931980610

> <CNNaffinity_variance>
0.1805181205

$$$$
[H]c1nc(N([H])c2c([H])c([H])c(N3C([H])([H])C([H])([H])C([H])([H])[C@@]([H])(N4C([H])([H])C([H])([H])C([H])([H])C4([H])[H])C3([H])[H])c([H])c2OC([H])([H])[H])nc(N([H])c2c([H])c([H])c([H])c([H])c2S(=O)(=O)C(C([H])([H])[H])(C([H])([H])[H])C([H])([H])[H])c1Cl


 43 47  0  0  0  0  0  0  0  0999 V2000
    0.1358  -52.6655  -24.7413 C   0  0  0  0  0  0  0  0  0  0  0  0
   -0.0486  -53.2455  -25.9203 N   0  0  0  0  0  0  0  0  0  0  0  0
    0.8508  -53.2359  -26.9059 C   0  0  0  0  0  0  0  0  0  0  0  0
    2.0348  -52.5835  -26.6774 C   0  0  0  0  0  0  0  0  0  0  0  0
    3.2252  -52.5526  -27.9235 Cl  0  0  0  0  0  0  0  0  0  0  0  0
    2.3120  -51.9378  -25.4480 C   0  0  0  0  0  0  0  0  0  0  0  0
    1.3186  -52.0350  -24.5647 N   0  0  0  0  0  0  0  0  0  0  0  0
   -0.7977  -52.6695  -23.7027 N   0  0  0  0  0  0  0  0  0  0  0  0
   -1.7997  -52.9572  -23.9952 H   0  0  0  0  0  0  0  0  0  0  0  0
   -1.0670  -53.2514  -21.3945 C   0  0  0  0  0  0  0  0  0  0  0  0
   -0.8608  -53.0240  -20.0657 C   0  0  0  0  0  0  0  0  0  0  0  0
   -0.1669  -51.9350  -19.5698 C   0  0  0  0  0  0  0  0  0  0  0  0
    0.3237  -51.0615  -20.4860 C   0  0  0  0  0  0  0  0  0  0  0  0
    0.1235  -51.2748  -21.8663 C   0  0  0  0  0  0  0  0  0  0  0  0
   -0.5616  -52.3499  -22.3560 C   0  0  0  0  0  0  0  0  0  0  0  0
   -0.0085  -51.7730  -18.1679 N   0  0  0  0  0  0  0  0  0  0  0  0
   -0.8995  -52.4397  -17.2389 C   0  0  0  0  0  0  0  0  0  0  0  0
   -0.6950  -51.8163  -15.8753 C   0  0  0  0  0  0  0  0  0  0  0  0
   -0.7515  -50.3192  -15.9838 C   0  0  0  0  0  0  0  0  0  0  0  0
    0.3219  -49.8027  -16.8727 C   0  0  0  0  0  0  0  0  0  0  0  0
    1.0367  -50.9585  -17.5870 C   0  0  0  0  0  0  0  0  0  0  0  0
    1.2245  -48.8862  -16.2646 N   0  0  0  0  0  0  0  0  0  0  0  0
    1.1349  -48.7291  -14.8549 C   0  0  0  0  0  0  0  0  0  0  0  0
    2.5103  -49.0583  -14.3201 C   0  0  0  0  0  0  0  0  0  0  0  0
    3.4398  -48.7363  -15.4474 C   0  0  0  0  0  0  0  0  0  0  0  0
    2.5776  -48.9299  -16.6777 C   0  0  0  0  0  0  0  0  0  0  0  0
   -1.1938  -55.3115  -22.6829 C   0  0  0  0  0  0  0  0  0  0  0  0
   -1.7763  -54.3726  -21.8124 O   0  0  0  0  0  0  0  0  0  0  0  0
    3.5456  -51.3036  -25.2984 N   0  0  0  0  0  0  0  0  0  0  0  0
    4.0513  -51.0704  -26.1980 H   0  0  0  0  0  0  0  0  0  0  0  0
    4.2041  -50.9284  -24.1205 C   0  0  0  0  0  0  0  0  0  0  0  0
    4.5967  -51.8384  -23.1609 C   0  0  0  0  0  0  0  0  0  0  0  0
    5.2242  -51.4349  -21.9836 C   0  0  0  0  0  0  0  0  0  0  0  0
    5.4566  -50.1098  -21.7707 C   0  0  0  0  0  0  0  0  0  0  0  0
    5.0733  -49.1608  -22.7195 C   0  0  0  0  0  0  0  0  0  0  0  0
    4.4551  -49.5582  -23.8822 C   0  0  0  0  0  0  0  0  0  0  0  0
    4.0067  -48.3756  -25.0580 S   0  0  0  0  0  0  0  0  0  0  0  0
    3.6761  -47.0819  -24.3357 O   0  0  0  0  0  0  0  0  0  0  0  0
    2.7807  -48.7546  -25.8540 O   0  0  0  0  0  0  0  0  0  0  0  0
    5.3382  -47.9577  -26.1676 C   0  0  0  0  0  0  0  0  0  0  0  0
    6.5894  -48.7545  -25.7549 C   0  0  0  0  0  0  0  0  0  0  0  0
    5.0563  -48.3740  -27.5905 C   0  0  0  0  0  0  0  0  0  0  0  0
    5.7263  -46.5179  -26.1266 C   0  0  0  0  0  0  0  0  0  0  0  0
 27 28  1  0  0  0
 28 10  1  0  0  0
 10 11  2  0  0  0
 11 12  1  0  0  0
 12 13  2  0  0  0
 13 14  1  0  0  0
 14 15  2  0  0  0
 15  8  1  0  0  0
  8  1  1  0  0  0
  1  2  2  0  0  0
  2  3  1  0  0  0
  3  4  2  0  0  0
  4  5  1  0  0  0
  4  6  1  0  0  0
  6 29  1  0  0  0
 29 31  1  0  0  0
 31 32  2  0  0  0
 32 33  1  0  0  0
 33 34  2  0  0  0
 34 35  1  0  0  0
 35 36  2  0  0  0
 36 37  1  0  0  0
 37 38  2  0  0  0
 37 39  2  0  0  0
 37 40  1  0  0  0
 40 41  1  0  0  0
 40 42  1  0  0  0
 40 43  1  0  0  0
  6  7  2  0  0  0
 12 16  1  0  0  0
 16 17  1  0  0  0
 17 18  1  0  0  0
 18 19  1  0  0  0
 19 20  1  0  0  0
 20 21  1  0  0  0
 20 22  1  0  0  0
 22 23  1  0  0  0
 23 24  1  0  0  0
 24 25  1  0  0  0
 25 26  1  0  0  0
 15 10  1  0  0  0
  7  1  1  0  0  0
 21 16  1  0  0  0
 26 22  1  0  0  0
 36 31  1  0  0  0
  8  9  1  0  0  0
 29 30  1  0  0  0
M  END
> <minimizedAffinity>
-7.48918

> <CNNscore>
0.2133757323

> <CNNaffinity>
7.5376853943

> <CNN_VS>
1.6083590984

> <CNNaffinity_variance>
0.2254309207

$$$$
[H]c1nc(N([H])c2c([H])c([H])c(N3C([H])([H])C([H])([H])C([H])([H])[C@@]([H])(N4C([H])([H])C([H])([H])C([H])([H])C4([H])[H])C3([H])[H])c([H])c2OC([H])([H])[H])nc(N([H])c2c([H])c([H])c([H])c([H])c2S(=O)(=O)C(C([H])([H])[H])(C([H])([H])[H])C([H])([H])[H])c1Cl


 43 47  0  0  0  0  0  0  0  0999 V2000
    0.3256  -52.9323  -21.9617 C   0  0  0  0  0  0  0  0  0  0  0  0
   -0.4184  -53.8932  -21.4289 N   0  0  0  0  0  0  0  0  0  0  0  0
   -0.8722  -53.8769  -20.1742 C   0  0  0  0  0  0  0  0  0  0  0  0
   -0.5439  -52.7976  -19.3952 C   0  0  0  0  0  0  0  0  0  0  0  0
   -1.1149  -52.7361  -17.7701 Cl  0  0  0  0  0  0  0  0  0  0  0  0
    0.2465  -51.7296  -19.8852 C   0  0  0  0  0  0  0  0  0  0  0  0
    0.6227  -51.8899  -21.1538 N   0  0  0  0  0  0  0  0  0  0  0  0
    0.8056  -52.9384  -23.2732 N   0  0  0  0  0  0  0  0  0  0  0  0
    0.3761  -53.7022  -23.9093 H   0  0  0  0  0  0  0  0  0  0  0  0
    1.3533  -51.3160  -24.9484 C   0  0  0  0  0  0  0  0  0  0  0  0
    2.2142  -50.4324  -25.5299 C   0  0  0  0  0  0  0  0  0  0  0  0
    3.5049  -50.2093  -25.0852 C   0  0  0  0  0  0  0  0  0  0  0  0
    3.9060  -50.9280  -24.0056 C   0  0  0  0  0  0  0  0  0  0  0  0
    3.0338  -51.8483  -23.3865 C   0  0  0  0  0  0  0  0  0  0  0  0
    1.7595  -52.0687  -23.8255 C   0  0  0  0  0  0  0  0  0  0  0  0
    4.3361  -49.2755  -25.7590 N   0  0  0  0  0  0  0  0  0  0  0  0
    5.7354  -49.1386  -25.4063 C   0  0  0  0  0  0  0  0  0  0  0  0
    6.2496  -47.8661  -26.0436 C   0  0  0  0  0  0  0  0  0  0  0  0
    5.3137  -46.7300  -25.7443 C   0  0  0  0  0  0  0  0  0  0  0  0
    3.9591  -46.9875  -26.2992 C   0  0  0  0  0  0  0  0  0  0  0  0
    3.8539  -48.4257  -26.8261 C   0  0  0  0  0  0  0  0  0  0  0  0
    3.4924  -46.0212  -27.2334 N   0  0  0  0  0  0  0  0  0  0  0  0
    4.2295  -45.8794  -28.4402 C   0  0  0  0  0  0  0  0  0  0  0  0
    3.2380  -46.1266  -29.5546 C   0  0  0  0  0  0  0  0  0  0  0  0
    1.9145  -45.7401  -28.9738 C   0  0  0  0  0  0  0  0  0  0  0  0
    2.1010  -45.9783  -27.4895 C   0  0  0  0  0  0  0  0  0  0  0  0
   -0.1496  -52.2137  -26.6381 C   0  0  0  0  0  0  0  0  0  0  0  0
    0.0694  -51.4821  -25.4569 O   0  0  0  0  0  0  0  0  0  0  0  0
    0.5270  -50.6670  -19.0259 N   0  0  0  0  0  0  0  0  0  0  0  0
    0.0704  -50.7177  -18.0727 H   0  0  0  0  0  0  0  0  0  0  0  0
    1.3346  -49.5448  -19.2499 C   0  0  0  0  0  0  0  0  0  0  0  0
    1.3820  -48.8876  -20.4619 C   0  0  0  0  0  0  0  0  0  0  0  0
    2.2171  -47.7907  -20.6668 C   0  0  0  0  0  0  0  0  0  0  0  0
    3.0086  -47.3541  -19.6480 C   0  0  0  0  0  0  0  0  0  0  0  0
    2.9868  -47.9942  -18.4081 C   0  0  0  0  0  0  0  0  0  0  0  0
    2.1620  -49.0761  -18.2045 C   0  0  0  0  0  0  0  0  0  0  0  0
    2.1279  -49.8448  -16.6586 S   0  0  0  0  0  0  0  0  0  0  0  0
    3.4748  -49.6374  -15.9896 O   0  0  0  0  0  0  0  0  0  0  0  0
    1.9051  -51.3364  -16.7340 O   0  0  0  0  0  0  0  0  0  0  0  0
    0.9420  -49.1155  -15.5447 C   0  0  0  0  0  0  0  0  0  0  0  0
    1.3119  -47.6358  -15.3341 C   0  0  0  0  0  0  0  0  0  0  0  0
   -0.4534  -49.0958  -16.1191 C   0  0  0  0  0  0  0  0  0  0  0  0
    0.9255  -49.7400  -14.1901 C   0  0  0  0  0  0  0  0  0  0  0  0
 27 28  1  0  0  0
 28 10  1  0  0  0
 10 11  2  0  0  0
 11 12  1  0  0  0
 12 13  2  0  0  0
 13 14  1  0  0  0
 14 15  2  0  0  0
 15  8  1  0  0  0
  8  1  1  0  0  0
  1  2  2  0  0  0
  2  3  1  0  0  0
  3  4  2  0  0  0
  4  5  1  0  0  0
  4  6  1  0  0  0
  6 29  1  0  0  0
 29 31  1  0  0  0
 31 32  2  0  0  0
 32 33  1  0  0  0
 33 34  2  0  0  0
 34 35  1  0  0  0
 35 36  2  0  0  0
 36 37  1  0  0  0
 37 38  2  0  0  0
 37 39  2  0  0  0
 37 40  1  0  0  0
 40 41  1  0  0  0
 40 42  1  0  0  0
 40 43  1  0  0  0
  6  7  2  0  0  0
 12 16  1  0  0  0
 16 17  1  0  0  0
 17 18  1  0  0  0
 18 19  1  0  0  0
 19 20  1  0  0  0
 20 21  1  0  0  0
 20 22  1  0  0  0
 22 23  1  0  0  0
 23 24  1  0  0  0
 24 25  1  0  0  0
 25 26  1  0  0  0
 15 10  1  0  0  0
  7  1  1  0  0  0
 21 16  1  0  0  0
 26 22  1  0  0  0
 36 31  1  0  0  0
  8  9  1  0  0  0
 29 30  1  0  0  0
M  END
> <minimizedAffinity>
-7.18351

> <CNNscore>
0.1403570473

> <CNNaffinity>
7.2233872414

> <CNN_VS>
1.0138533115

> <CNNaffinity_variance>
0.2437464893

$$$$
[H]c1nc(N([H])c2c([H])c([H])c(N3C([H])([H])C([H])([H])C([H])([H])[C@@]([H])(N4C([H])([H])C([H])([H])C([H])([H])C4([H])[H])C3([H])[H])c([H])c2OC([H])([H])[H])nc(N([H])c2c([H])c([H])c([H])c([H])c2S(=O)(=O)C(C([H])([H])[H])(C([H])([H])[H])C([H])([H])[H])c1Cl


 43 47  0  0  0  0  0  0  0  0999 V2000
    2.3120  -50.6009  -23.2860 C   0  0  0  0  0  0  0  0  0  0  0  0
    1.3802  -51.1009  -24.0875 N   0  0  0  0  0  0  0  0  0  0  0  0
    0.5133  -52.0481  -23.7246 C   0  0  0  0  0  0  0  0  0  0  0  0
    0.5988  -52.5287  -22.4435 C   0  0  0  0  0  0  0  0  0  0  0  0
   -0.5064  -53.7493  -21.9339 Cl  0  0  0  0  0  0  0  0  0  0  0  0
    1.5641  -52.0507  -21.5242 C   0  0  0  0  0  0  0  0  0  0  0  0
    2.3562  -51.1072  -22.0333 N   0  0  0  0  0  0  0  0  0  0  0  0
    3.2239  -49.6095  -23.6545 N   0  0  0  0  0  0  0  0  0  0  0  0
    3.9176  -49.3197  -22.8752 H   0  0  0  0  0  0  0  0  0  0  0  0
    3.1308  -47.5806  -24.9247 C   0  0  0  0  0  0  0  0  0  0  0  0
    3.2328  -46.8904  -26.0966 C   0  0  0  0  0  0  0  0  0  0  0  0
    3.5223  -47.4798  -27.3141 C   0  0  0  0  0  0  0  0  0  0  0  0
    3.7098  -48.8243  -27.3066 C   0  0  0  0  0  0  0  0  0  0  0  0
    3.6095  -49.5604  -26.1070 C   0  0  0  0  0  0  0  0  0  0  0  0
    3.3236  -48.9788  -24.9049 C   0  0  0  0  0  0  0  0  0  0  0  0
    3.5997  -46.6833  -28.4873 N   0  0  0  0  0  0  0  0  0  0  0  0
    2.6083  -45.6604  -28.7561 C   0  0  0  0  0  0  0  0  0  0  0  0
    2.7646  -45.2343  -30.1997 C   0  0  0  0  0  0  0  0  0  0  0  0
    2.8141  -46.4449  -31.0876 C   0  0  0  0  0  0  0  0  0  0  0  0
    3.9746  -47.3112  -30.7532 C   0  0  0  0  0  0  0  0  0  0  0  0
    4.6565  -46.8297  -29.4646 C   0  0  0  0  0  0  0  0  0  0  0  0
    4.8944  -47.5304  -31.8164 N   0  0  0  0  0  0  0  0  0  0  0  0
    4.4360  -47.2603  -33.1343 C   0  0  0  0  0  0  0  0  0  0  0  0
    5.4000  -46.2422  -33.7001 C   0  0  0  0  0  0  0  0  0  0  0  0
    6.6799  -46.4859  -32.9646 C   0  0  0  0  0  0  0  0  0  0  0  0
    6.2187  -47.0625  -31.6420 C   0  0  0  0  0  0  0  0  0  0  0  0
    3.2527  -45.5841  -23.5394 C   0  0  0  0  0  0  0  0  0  0  0  0
    2.8364  -46.9125  -23.7408 O   0  0  0  0  0  0  0  0  0  0  0  0
    1.5757  -52.5905  -20.2380 N   0  0  0  0  0  0  0  0  0  0  0  0
    2.3143  -53.3266  -20.0582 H   0  0  0  0  0  0  0  0  0  0  0  0
    0.7471  -52.2880  -19.1500 C   0  0  0  0  0  0  0  0  0  0  0  0
   -0.5223  -52.8093  -19.0092 C   0  0  0  0  0  0  0  0  0  0  0  0
   -1.3376  -52.4683  -17.9313 C   0  0  0  0  0  0  0  0  0  0  0  0
   -0.8737  -51.5980  -16.9919 C   0  0  0  0  0  0  0  0  0  0  0  0
    0.4055  -51.0509  -17.1016 C   0  0  0  0  0  0  0  0  0  0  0  0
    1.2113  -51.3878  -18.1643 C   0  0  0  0  0  0  0  0  0  0  0  0
    2.8004  -50.7213  -18.2759 S   0  0  0  0  0  0  0  0  0  0  0  0
    3.6317  -51.6115  -19.1820 O   0  0  0  0  0  0  0  0  0  0  0  0
    3.5198  -50.6578  -16.9498 O   0  0  0  0  0  0  0  0  0  0  0  0
    2.8291  -49.1167  -19.0526 C   0  0  0  0  0  0  0  0  0  0  0  0
    2.9649  -48.0434  -17.9570 C   0  0  0  0  0  0  0  0  0  0  0  0
    4.0333  -48.9273  -19.9423 C   0  0  0  0  0  0  0  0  0  0  0  0
    1.5838  -48.7905  -19.8064 C   0  0  0  0  0  0  0  0  0  0  0  0
 27 28  1  0  0  0
 28 10  1  0  0  0
 10 11  2  0  0  0
 11 12  1  0  0  0
 12 13  2  0  0  0
 13 14  1  0  0  0
 14 15  2  0  0  0
 15  8  1  0  0  0
  8  1  1  0  0  0
  1  2  2  0  0  0
  2  3  1  0  0  0
  3  4  2  0  0  0
  4  5  1  0  0  0
  4  6  1  0  0  0
  6 29  1  0  0  0
 29 31  1  0  0  0
 31 32  2  0  0  0
 32 33  1  0  0  0
 33 34  2  0  0  0
 34 35  1  0  0  0
 35 36  2  0  0  0
 36 37  1  0  0  0
 37 38  2  0  0  0
 37 39  2  0  0  0
 37 40  1  0  0  0
 40 41  1  0  0  0
 40 42  1  0  0  0
 40 43  1  0  0  0
  6  7  2  0  0  0
 12 16  1  0  0  0
 16 17  1  0  0  0
 17 18  1  0  0  0
 18 19  1  0  0  0
 19 20  1  0  0  0
 20 21  1  0  0  0
 20 22  1  0  0  0
 22 23  1  0  0  0
 23 24  1  0  0  0
 24 25  1  0  0  0
 25 26  1  0  0  0
 15 10  1  0  0  0
  7  1  1  0  0  0
 21 16  1  0  0  0
 26 22  1  0  0  0
 36 31  1  0  0  0
  8  9  1  0  0  0
 29 30  1  0  0  0
M  END
> <minimizedAffinity>
-7.25178

> <CNNscore>
0.1257572919

> <CNNaffinity>
6.6905565262

> <CNN_VS>
0.8413862586

> <CNNaffinity_variance>
0.1375264376

$$$$
[H]c1nc(N([H])c2c([H])c([H])c(N3C([H])([H])C([H])([H])C([H])([H])[C@@]([H])(N4C([H])([H])C([H])([H])C([H])([H])C4([H])[H])C3([H])[H])c([H])c2OC([H])([H])[H])nc(N([H])c2c([H])c([H])c([H])c([H])c2S(=O)(=O)C(C([H])([H])[H])(C([H])([H])[H])C([H])([H])[H])c1Cl


 43 47  0  0  0  0  0  0  0  0999 V2000
    0.5929  -52.6690  -21.3677 C   0  0  0  0  0  0  0  0  0  0  0  0
   -0.4136  -53.0467  -22.1454 N   0  0  0  0  0  0  0  0  0  0  0  0
   -0.5496  -52.6802  -23.4212 C   0  0  0  0  0  0  0  0  0  0  0  0
    0.4144  -51.8625  -23.9521 C   0  0  0  0  0  0  0  0  0  0  0  0
    0.2781  -51.3706  -25.5984 Cl  0  0  0  0  0  0  0  0  0  0  0  0
    1.5208  -51.4127  -23.1913 C   0  0  0  0  0  0  0  0  0  0  0  0
    1.5171  -51.8631  -21.9368 N   0  0  0  0  0  0  0  0  0  0  0  0
    0.7457  -53.0465  -20.0319 N   0  0  0  0  0  0  0  0  0  0  0  0
    1.6008  -53.6809  -19.8353 H   0  0  0  0  0  0  0  0  0  0  0  0
    0.3151  -51.5537  -18.2085 C   0  0  0  0  0  0  0  0  0  0  0  0
   -0.4441  -51.1249  -17.1597 C   0  0  0  0  0  0  0  0  0  0  0  0
   -1.6163  -51.7387  -16.7564 C   0  0  0  0  0  0  0  0  0  0  0  0
   -2.0048  -52.8281  -17.4672 C   0  0  0  0  0  0  0  0  0  0  0  0
   -1.2364  -53.2911  -18.5562 C   0  0  0  0  0  0  0  0  0  0  0  0
   -0.0790  -52.6854  -18.9544 C   0  0  0  0  0  0  0  0  0  0  0  0
   -2.3386  -51.2282  -15.6453 N   0  0  0  0  0  0  0  0  0  0  0  0
   -3.6535  -51.7419  -15.3161 C   0  0  0  0  0  0  0  0  0  0  0  0
   -4.2853  -50.7906  -14.3233 C   0  0  0  0  0  0  0  0  0  0  0  0
   -4.1640  -49.3782  -14.8202 C   0  0  0  0  0  0  0  0  0  0  0  0
   -2.7398  -48.9804  -14.9704 C   0  0  0  0  0  0  0  0  0  0  0  0
   -1.8161  -50.1921  -14.7811 C   0  0  0  0  0  0  0  0  0  0  0  0
   -2.3396  -47.8545  -14.1980 N   0  0  0  0  0  0  0  0  0  0  0  0
   -1.3752  -48.0792  -13.1785 C   0  0  0  0  0  0  0  0  0  0  0  0
   -0.2259  -47.1485  -13.4929 C   0  0  0  0  0  0  0  0  0  0  0  0
   -0.8531  -46.0144  -14.2404 C   0  0  0  0  0  0  0  0  0  0  0  0
   -2.0639  -46.6514  -14.8906 C   0  0  0  0  0  0  0  0  0  0  0  0
    1.4386  -49.5565  -19.0260 C   0  0  0  0  0  0  0  0  0  0  0  0
    1.4826  -50.8797  -18.5509 O   0  0  0  0  0  0  0  0  0  0  0  0
    2.4588  -50.5883  -23.8132 N   0  0  0  0  0  0  0  0  0  0  0  0
    2.0727  -49.7044  -24.2484 H   0  0  0  0  0  0  0  0  0  0  0  0
    3.8424  -50.7675  -23.9360 C   0  0  0  0  0  0  0  0  0  0  0  0
    4.4193  -51.9989  -24.1682 C   0  0  0  0  0  0  0  0  0  0  0  0
    5.8016  -52.1541  -24.2567 C   0  0  0  0  0  0  0  0  0  0  0  0
    6.6068  -51.0654  -24.1096 C   0  0  0  0  0  0  0  0  0  0  0  0
    6.0584  -49.8039  -23.8739 C   0  0  0  0  0  0  0  0  0  0  0  0
    4.6943  -49.6496  -23.7877 C   0  0  0  0  0  0  0  0  0  0  0  0
    4.0279  -48.0795  -23.5184 S   0  0  0  0  0  0  0  0  0  0  0  0
    5.0029  -47.2834  -22.6698 O   0  0  0  0  0  0  0  0  0  0  0  0
    2.7177  -48.1034  -22.7681 O   0  0  0  0  0  0  0  0  0  0  0  0
    3.8439  -47.1348  -25.0192 C   0  0  0  0  0  0  0  0  0  0  0  0
    2.9410  -45.9219  -24.7281 C   0  0  0  0  0  0  0  0  0  0  0  0
    5.1502  -46.5491  -25.4966 C   0  0  0  0  0  0  0  0  0  0  0  0
    3.1889  -47.8878  -26.1279 C   0  0  0  0  0  0  0  0  0  0  0  0
 27 28  1  0  0  0
 28 10  1  0  0  0
 10 11  2  0  0  0
 11 12  1  0  0  0
 12 13  2  0  0  0
 13 14  1  0  0  0
 14 15  2  0  0  0
 15  8  1  0  0  0
  8  1  1  0  0  0
  1  2  2  0  0  0
  2  3  1  0  0  0
  3  4  2  0  0  0
  4  5  1  0  0  0
  4  6  1  0  0  0
  6 29  1  0  0  0
 29 31  1  0  0  0
 31 32  2  0  0  0
 32 33  1  0  0  0
 33 34  2  0  0  0
 34 35  1  0  0  0
 35 36  2  0  0  0
 36 37  1  0  0  0
 37 38  2  0  0  0
 37 39  2  0  0  0
 37 40  1  0  0  0
 40 41  1  0  0  0
 40 42  1  0  0  0
 40 43  1  0  0  0
  6  7  2  0  0  0
 12 16  1  0  0  0
 16 17  1  0  0  0
 17 18  1  0  0  0
 18 19  1  0  0  0
 19 20  1  0  0  0
 20 21  1  0  0  0
 20 22  1  0  0  0
 22 23  1  0  0  0
 23 24  1  0  0  0
 24 25  1  0  0  0
 25 26  1  0  0  0
 15 10  1  0  0  0
  7  1  1  0  0  0
 21 16  1  0  0  0
 26 22  1  0  0  0
 36 31  1  0  0  0
  8  9  1  0  0  0
 29 30  1  0  0  0
M  END
> <minimizedAffinity>
-7.17175

> <CNNscore>
0.1138879657

> <CNNaffinity>
6.9971795082

> <CNN_VS>
0.7968945503

> <CNNaffinity_variance>
0.1297601014

$$$$
[H]c1nc(N([H])c2c([H])c([H])c(N3C([H])([H])C([H])([H])C([H])([H])[C@@]([H])(N4C([H])([H])C([H])([H])C([H])([H])C4([H])[H])C3([H])[H])c([H])c2OC([H])([H])[H])nc(N([H])c2c([H])c([H])c([H])c([H])c2S(=O)(=O)C(C([H])([H])[H])(C([H])([H])[H])C([H])([H])[H])c1Cl


 43 47  0  0  0  0  0  0  0  0999 V2000
    0.0891  -52.8120  -24.8020 C   0  0  0  0  0  0  0  0  0  0  0  0
   -0.1141  -53.4161  -25.9658 N   0  0  0  0  0  0  0  0  0  0  0  0
    0.7724  -53.4331  -26.9629 C   0  0  0  0  0  0  0  0  0  0  0  0
    1.9631  -52.7833  -26.7637 C   0  0  0  0  0  0  0  0  0  0  0  0
    3.1374  -52.7864  -28.0255 Cl  0  0  0  0  0  0  0  0  0  0  0  0
    2.2601  -52.1131  -25.5521 C   0  0  0  0  0  0  0  0  0  0  0  0
    1.2777  -52.1852  -24.6542 N   0  0  0  0  0  0  0  0  0  0  0  0
   -0.8309  -52.7880  -23.7516 N   0  0  0  0  0  0  0  0  0  0  0  0
   -1.8382  -53.0761  -24.0249 H   0  0  0  0  0  0  0  0  0  0  0  0
   -1.0644  -53.3237  -21.4284 C   0  0  0  0  0  0  0  0  0  0  0  0
   -0.8389  -53.0690  -20.1076 C   0  0  0  0  0  0  0  0  0  0  0  0
   -0.1402  -51.9687  -19.6443 C   0  0  0  0  0  0  0  0  0  0  0  0
    0.3347  -51.1130  -20.5852 C   0  0  0  0  0  0  0  0  0  0  0  0
    0.1144  -51.3547  -21.9577 C   0  0  0  0  0  0  0  0  0  0  0  0
   -0.5755  -52.4408  -22.4153 C   0  0  0  0  0  0  0  0  0  0  0  0
    0.0386  -51.7781  -18.2485 N   0  0  0  0  0  0  0  0  0  0  0  0
   -0.8535  -52.4058  -17.2939 C   0  0  0  0  0  0  0  0  0  0  0  0
   -0.6201  -51.7558  -15.9474 C   0  0  0  0  0  0  0  0  0  0  0  0
   -0.6490  -50.2607  -16.0896 C   0  0  0  0  0  0  0  0  0  0  0  0
    0.4232  -49.7857  -17.0029 C   0  0  0  0  0  0  0  0  0  0  0  0
    1.1065  -50.9713  -17.6990 C   0  0  0  0  0  0  0  0  0  0  0  0
    1.3508  -48.8735  -16.4269 N   0  0  0  0  0  0  0  0  0  0  0  0
    0.9510  -48.2106  -15.2349 C   0  0  0  0  0  0  0  0  0  0  0  0
    2.0078  -48.5475  -14.2074 C   0  0  0  0  0  0  0  0  0  0  0  0
    3.2440  -48.8064  -15.0095 C   0  0  0  0  0  0  0  0  0  0  0  0
    2.7030  -49.2829  -16.3417 C   0  0  0  0  0  0  0  0  0  0  0  0
   -1.2161  -55.3955  -22.6948 C   0  0  0  0  0  0  0  0  0  0  0  0
   -1.7772  -54.4544  -21.8128 O   0  0  0  0  0  0  0  0  0  0  0  0
    3.4993  -51.4835  -25.4321 N   0  0  0  0  0  0  0  0  0  0  0  0
    4.3049  -52.1103  -25.1533 H   0  0  0  0  0  0  0  0  0  0  0  0
    3.8243  -50.1364  -25.6353 C   0  0  0  0  0  0  0  0  0  0  0  0
    3.2925  -49.3857  -26.6633 C   0  0  0  0  0  0  0  0  0  0  0  0
    3.6558  -48.0546  -26.8607 C   0  0  0  0  0  0  0  0  0  0  0  0
    4.5590  -47.4770  -26.0206 C   0  0  0  0  0  0  0  0  0  0  0  0
    5.1176  -48.2058  -24.9697 C   0  0  0  0  0  0  0  0  0  0  0  0
    4.7587  -49.5191  -24.7733 C   0  0  0  0  0  0  0  0  0  0  0  0
    5.4402  -50.4025  -23.4553 S   0  0  0  0  0  0  0  0  0  0  0  0
    6.7514  -49.7452  -23.0639 O   0  0  0  0  0  0  0  0  0  0  0  0
    5.7586  -51.8389  -23.7955 O   0  0  0  0  0  0  0  0  0  0  0  0
    4.4359  -50.3419  -21.9835 C   0  0  0  0  0  0  0  0  0  0  0  0
    5.3097  -49.8556  -20.8127 C   0  0  0  0  0  0  0  0  0  0  0  0
    3.3186  -49.3328  -22.0880 C   0  0  0  0  0  0  0  0  0  0  0  0
    3.8872  -51.6673  -21.5742 C   0  0  0  0  0  0  0  0  0  0  0  0
 27 28  1  0  0  0
 28 10  1  0  0  0
 10 11  2  0  0  0
 11 12  1  0  0  0
 12 13  2  0  0  0
 13 14  1  0  0  0
 14 15  2  0  0  0
 15  8  1  0  0  0
  8  1  1  0  0  0
  1  2  2  0  0  0
  2  3  1  0  0  0
  3  4  2  0  0  0
  4  5  1  0  0  0
  4  6  1  0  0  0
  6 29  1  0  0  0
 29 31  1  0  0  0
 31 32  2  0  0  0
 32 33  1  0  0  0
 33 34  2  0  0  0
 34 35  1  0  0  0
 35 36  2  0  0  0
 36 37  1  0  0  0
 37 38  2  0  0  0
 37 39  2  0  0  0
 37 40  1  0  0  0
 40 41  1  0  0  0
 40 42  1  0  0  0
 40 43  1  0  0  0
  6  7  2  0  0  0
 12 16  1  0  0  0
 16 17  1  0  0  0
 17 18  1  0  0  0
 18 19  1  0  0  0
 19 20  1  0  0  0
 20 21  1  0  0  0
 20 22  1  0  0  0
 22 23  1  0  0  0
 23 24  1  0  0  0
 24 25  1  0  0  0
 25 26  1  0  0  0
 15 10  1  0  0  0
  7  1  1  0  0  0
 21 16  1  0  0  0
 26 22  1  0  0  0
 36 31  1  0  0  0
  8  9  1  0  0  0
 29 30  1  0  0  0
M  END
> <minimizedAffinity>
-7.71647

> <CNNscore>
0.0851659477

> <CNNaffinity>
7.3060617447

> <CNN_VS>
0.6222276688

> <CNNaffinity_variance>
0.3711375892

$$$$
[H]c1nc(N([H])c2c([H])c([H])c(N3C([H])([H])C([H])([H])C([H])([H])[C@@]([H])(N4C([H])([H])C([H])([H])C([H])([H])C4([H])[H])C3([H])[H])c([H])c2OC([H])([H])[H])nc(N([H])c2c([H])c([H])c([H])c([H])c2S(=O)(=O)C(C([H])([H])[H])(C([H])([H])[H])C([H])([H])[H])c1Cl


 43 47  0  0  0  0  0  0  0  0999 V2000
    1.9465  -51.1914  -21.2729 C   0  0  0  0  0  0  0  0  0  0  0  0
    1.4340  -51.5800  -20.1124 N   0  0  0  0  0  0  0  0  0  0  0  0
    0.3090  -52.2874  -19.9925 C   0  0  0  0  0  0  0  0  0  0  0  0
   -0.3513  -52.6284  -21.1446 C   0  0  0  0  0  0  0  0  0  0  0  0
   -1.8057  -53.5466  -21.0330 Cl  0  0  0  0  0  0  0  0  0  0  0  0
    0.1264  -52.2533  -22.4238 C   0  0  0  0  0  0  0  0  0  0  0  0
    1.2589  -51.5516  -22.3797 N   0  0  0  0  0  0  0  0  0  0  0  0
    3.1228  -50.4514  -21.4105 N   0  0  0  0  0  0  0  0  0  0  0  0
    3.8844  -50.6699  -20.6725 H   0  0  0  0  0  0  0  0  0  0  0  0
    4.4453  -49.7822  -23.2925 C   0  0  0  0  0  0  0  0  0  0  0  0
    4.7629  -48.9049  -24.2873 C   0  0  0  0  0  0  0  0  0  0  0  0
    4.1138  -47.6998  -24.4869 C   0  0  0  0  0  0  0  0  0  0  0  0
    3.1075  -47.4041  -23.6250 C   0  0  0  0  0  0  0  0  0  0  0  0
    2.7602  -48.2954  -22.5878 C   0  0  0  0  0  0  0  0  0  0  0  0
    3.4010  -49.4852  -22.3905 C   0  0  0  0  0  0  0  0  0  0  0  0
    4.5185  -46.8427  -25.5444 N   0  0  0  0  0  0  0  0  0  0  0  0
    5.0486  -45.5223  -25.2674 C   0  0  0  0  0  0  0  0  0  0  0  0
    5.0659  -44.7495  -26.5683 C   0  0  0  0  0  0  0  0  0  0  0  0
    3.7320  -44.8652  -27.2493 C   0  0  0  0  0  0  0  0  0  0  0  0
    3.4160  -46.2798  -27.5783 C   0  0  0  0  0  0  0  0  0  0  0  0
    4.4402  -47.2269  -26.9371 C   0  0  0  0  0  0  0  0  0  0  0  0
    3.2034  -46.5486  -28.9592 N   0  0  0  0  0  0  0  0  0  0  0  0
    2.6354  -45.5066  -29.7412 C   0  0  0  0  0  0  0  0  0  0  0  0
    3.6217  -45.2520  -30.8586 C   0  0  0  0  0  0  0  0  0  0  0  0
    4.3318  -46.5565  -31.0387 C   0  0  0  0  0  0  0  0  0  0  0  0
    4.2452  -47.1940  -29.6674 C   0  0  0  0  0  0  0  0  0  0  0  0
    6.1851  -51.3051  -24.0498 C   0  0  0  0  0  0  0  0  0  0  0  0
    5.1474  -50.9755  -23.1592 O   0  0  0  0  0  0  0  0  0  0  0  0
   -0.6048  -52.6487  -23.5441 N   0  0  0  0  0  0  0  0  0  0  0  0
   -1.2880  -51.9332  -23.9195 H   0  0  0  0  0  0  0  0  0  0  0  0
   -0.5548  -53.8612  -24.2435 C   0  0  0  0  0  0  0  0  0  0  0  0
   -0.9613  -55.0592  -23.6933 C   0  0  0  0  0  0  0  0  0  0  0  0
   -0.8732  -56.2565  -24.4014 C   0  0  0  0  0  0  0  0  0  0  0  0
   -0.3728  -56.2482  -25.6681 C   0  0  0  0  0  0  0  0  0  0  0  0
    0.0480  -55.0550  -26.2570 C   0  0  0  0  0  0  0  0  0  0  0  0
   -0.0398  -53.8727  -25.5595 C   0  0  0  0  0  0  0  0  0  0  0  0
    0.4631  -52.4002  -26.3084 S   0  0  0  0  0  0  0  0  0  0  0  0
   -0.1025  -51.2387  -25.5112 O   0  0  0  0  0  0  0  0  0  0  0  0
   -0.0409  -52.2429  -27.7231 O   0  0  0  0  0  0  0  0  0  0  0  0
    2.2305  -52.1686  -26.2709 C   0  0  0  0  0  0  0  0  0  0  0  0
    2.8317  -52.7698  -27.5546 C   0  0  0  0  0  0  0  0  0  0  0  0
    2.6226  -50.7115  -26.2961 C   0  0  0  0  0  0  0  0  0  0  0  0
    2.9037  -52.8566  -25.1312 C   0  0  0  0  0  0  0  0  0  0  0  0
 27 28  1  0  0  0
 28 10  1  0  0  0
 10 11  2  0  0  0
 11 12  1  0  0  0
 12 13  2  0  0  0
 13 14  1  0  0  0
 14 15  2  0  0  0
 15  8  1  0  0  0
  8  1  1  0  0  0
  1  2  2  0  0  0
  2  3  1  0  0  0
  3  4  2  0  0  0
  4  5  1  0  0  0
  4  6  1  0  0  0
  6 29  1  0  0  0
 29 31  1  0  0  0
 31 32  2  0  0  0
 32 33  1  0  0  0
 33 34  2  0  0  0
 34 35  1  0  0  0
 35 36  2  0  0  0
 36 37  1  0  0  0
 37 38  2  0  0  0
 37 39  2  0  0  0
 37 40  1  0  0  0
 40 41  1  0  0  0
 40 42  1  0  0  0
 40 43  1  0  0  0
  6  7  2  0  0  0
 12 16  1  0  0  0
 16 17  1  0  0  0
 17 18  1  0  0  0
 18 19  1  0  0  0
 19 20  1  0  0  0
 20 21  1  0  0  0
 20 22  1  0  0  0
 22 23  1  0  0  0
 23 24  1  0  0  0
 24 25  1  0  0  0
 25 26  1  0  0  0
 15 10  1  0  0  0
  7  1  1  0  0  0
 21 16  1  0  0  0
 26 22  1  0  0  0
 36 31  1  0  0  0
  8  9  1  0  0  0
 29 30  1  0  0  0
M  END
> <minimizedAffinity>
-7.74173

> <CNNscore>
0.0774840638

> <CNNaffinity>
6.7756986618

> <CNN_VS>
0.5250086784

> <CNNaffinity_variance>
1.1767463684

$$$$
[H]c1nc(N([H])c2c([H])c([H])c(N3C([H])([H])C([H])([H])C([H])([H])[C@@]([H])(N4C([H])([H])C([H])([H])C([H])([H])C4([H])[H])C3([H])[H])c([H])c2OC([H])([H])[H])nc(N([H])c2c([H])c([H])c([H])c([H])c2S(=O)(=O)C(C([H])([H])[H])(C([H])([H])[H])C([H])([H])[H])c1Cl


 43 47  0  0  0  0  0  0  0  0999 V2000
    6.0907  -48.6416  -22.5995 C   0  0  0  0  0  0  0  0  0  0  0  0
    6.9133  -49.1171  -23.5257 N   0  0  0  0  0  0  0  0  0  0  0  0
    6.8383  -50.3507  -24.0285 C   0  0  0  0  0  0  0  0  0  0  0  0
    5.8478  -51.1703  -23.5522 C   0  0  0  0  0  0  0  0  0  0  0  0
    5.7138  -52.7700  -24.1799 Cl  0  0  0  0  0  0  0  0  0  0  0  0
    4.9287  -50.7423  -22.5636 C   0  0  0  0  0  0  0  0  0  0  0  0
    5.1315  -49.4877  -22.1619 N   0  0  0  0  0  0  0  0  0  0  0  0
    6.1594  -47.3526  -22.0665 N   0  0  0  0  0  0  0  0  0  0  0  0
    6.5536  -46.6035  -22.7417 H   0  0  0  0  0  0  0  0  0  0  0  0
    4.5586  -46.2358  -20.6776 C   0  0  0  0  0  0  0  0  0  0  0  0
    4.1008  -45.8296  -19.4588 C   0  0  0  0  0  0  0  0  0  0  0  0
    4.7601  -46.0757  -18.2679 C   0  0  0  0  0  0  0  0  0  0  0  0
    5.9274  -46.7636  -18.3530 C   0  0  0  0  0  0  0  0  0  0  0  0
    6.4218  -47.1945  -19.6023 C   0  0  0  0  0  0  0  0  0  0  0  0
    5.7711  -46.9515  -20.7782 C   0  0  0  0  0  0  0  0  0  0  0  0
    4.2135  -45.6062  -17.0441 N   0  0  0  0  0  0  0  0  0  0  0  0
    4.8468  -44.5249  -16.3154 C   0  0  0  0  0  0  0  0  0  0  0  0
    4.2429  -44.4873  -14.9284 C   0  0  0  0  0  0  0  0  0  0  0  0
    4.2508  -45.8650  -14.3299 C   0  0  0  0  0  0  0  0  0  0  0  0
    3.4389  -46.8094  -15.1412 C   0  0  0  0  0  0  0  0  0  0  0  0
    3.0086  -46.1568  -16.4626 C   0  0  0  0  0  0  0  0  0  0  0  0
    2.3581  -47.4271  -14.4522 N   0  0  0  0  0  0  0  0  0  0  0  0
    1.0847  -46.8044  -14.5556 C   0  0  0  0  0  0  0  0  0  0  0  0
    0.1595  -47.8601  -15.1173 C   0  0  0  0  0  0  0  0  0  0  0  0
    0.7629  -49.1589  -14.6842 C   0  0  0  0  0  0  0  0  0  0  0  0
    2.2366  -48.8336  -14.5540 C   0  0  0  0  0  0  0  0  0  0  0  0
    3.9034  -44.6761  -22.4262 C   0  0  0  0  0  0  0  0  0  0  0  0
    3.8348  -45.9483  -21.8300 O   0  0  0  0  0  0  0  0  0  0  0  0
    3.9475  -51.6395  -22.1412 N   0  0  0  0  0  0  0  0  0  0  0  0
    4.2263  -52.2804  -21.3467 H   0  0  0  0  0  0  0  0  0  0  0  0
    2.6420  -51.8047  -22.6209 C   0  0  0  0  0  0  0  0  0  0  0  0
    2.3555  -52.0054  -23.9553 C   0  0  0  0  0  0  0  0  0  0  0  0
    1.0445  -52.1373  -24.4100 C   0  0  0  0  0  0  0  0  0  0  0  0
    0.0176  -52.0658  -23.5181 C   0  0  0  0  0  0  0  0  0  0  0  0
    0.2698  -51.8639  -22.1604 C   0  0  0  0  0  0  0  0  0  0  0  0
    1.5632  -51.7349  -21.7105 C   0  0  0  0  0  0  0  0  0  0  0  0
    1.8624  -51.5083  -20.0250 S   0  0  0  0  0  0  0  0  0  0  0  0
    3.1478  -52.2309  -19.6642 O   0  0  0  0  0  0  0  0  0  0  0  0
    0.7798  -52.0792  -19.1405 O   0  0  0  0  0  0  0  0  0  0  0  0
    2.1543  -49.8033  -19.5930 C   0  0  0  0  0  0  0  0  0  0  0  0
    1.2198  -49.4249  -18.4292 C   0  0  0  0  0  0  0  0  0  0  0  0
    3.5507  -49.5712  -19.0697 C   0  0  0  0  0  0  0  0  0  0  0  0
    1.8589  -48.8437  -20.6963 C   0  0  0  0  0  0  0  0  0  0  0  0
 27 28  1  0  0  0
 28 10  1  0  0  0
 10 11  2  0  0  0
 11 12  1  0  0  0
 12 13  2  0  0  0
 13 14  1  0  0  0
 14 15  2  0  0  0
 15  8  1  0  0  0
  8  1  1  0  0  0
  1  2  2  0  0  0
  2  3  1  0  0  0
  3  4  2  0  0  0
  4  5  1  0  0  0
  4  6  1  0  0  0
  6 29  1  0  0  0
 29 31  1  0  0  0
 31 32  2  0  0  0
 32 33  1  0  0  0
 33 34  2  0  0  0
 34 35  1  0  0  0
 35 36  2  0  0  0
 36 37  1  0  0  0
 37 38  2  0  0  0
 37 39  2  0  0  0
 37 40  1  0  0  0
 40 41  1  0  0  0
 40 42  1  0  0  0
 40 43  1  0  0  0
  6  7  2  0  0  0
 12 16  1  0  0  0
 16 17  1  0  0  0
 17 18  1  0  0  0
 18 19  1  0  0  0
 19 20  1  0  0  0
 20 21  1  0  0  0
 20 22  1  0  0  0
 22 23  1  0  0  0
 23 24  1  0  0  0
 24 25  1  0  0  0
 25 26  1  0  0  0
 15 10  1  0  0  0
  7  1  1  0  0  0
 21 16  1  0  0  0
 26 22  1  0  0  0
 36 31  1  0  0  0
  8  9  1  0  0  0
 29 30  1  0  0  0
M  END
> <minimizedAffinity>
-5.69618

> <CNNscore>
0.0721909553

> <CNNaffinity>
6.5571031570

> <CNN_VS>
0.4733635485

> <CNNaffinity_variance>
0.2662697136

$$$$
[H]c1nc(N([H])c2c([H])c([H])c(N3C([H])([H])C([H])([H])C([H])([H])[C@@]([H])(N4C([H])([H])C([H])([H])C([H])([H])C4([H])[H])C3([H])[H])c([H])c2OC([H])([H])[H])nc(N([H])c2c([H])c([H])c([H])c([H])c2S(=O)(=O)C(C([H])([H])[H])(C([H])([H])[H])C([H])([H])[H])c1Cl


 43 47  0  0  0  0  0  0  0  0999 V2000
    1.0808  -52.1564  -24.0069 C   0  0  0  0  0  0  0  0  0  0  0  0
    1.1492  -52.5416  -25.2748 N   0  0  0  0  0  0  0  0  0  0  0  0
    1.8346  -51.8911  -26.2167 C   0  0  0  0  0  0  0  0  0  0  0  0
    2.5056  -50.7556  -25.8423 C   0  0  0  0  0  0  0  0  0  0  0  0
    3.4074  -49.8890  -27.0284 Cl  0  0  0  0  0  0  0  0  0  0  0  0
    2.4843  -50.2747  -24.5106 C   0  0  0  0  0  0  0  0  0  0  0  0
    1.7586  -51.0312  -23.6875 N   0  0  0  0  0  0  0  0  0  0  0  0
    0.3672  -52.8293  -23.0128 N   0  0  0  0  0  0  0  0  0  0  0  0
   -0.1045  -53.7484  -23.3370 H   0  0  0  0  0  0  0  0  0  0  0  0
   -0.2487  -53.4235  -20.7753 C   0  0  0  0  0  0  0  0  0  0  0  0
   -0.4020  -53.1291  -19.4525 C   0  0  0  0  0  0  0  0  0  0  0  0
   -0.1264  -51.8900  -18.9028 C   0  0  0  0  0  0  0  0  0  0  0  0
    0.3207  -50.9346  -19.7573 C   0  0  0  0  0  0  0  0  0  0  0  0
    0.4875  -51.2147  -21.1301 C   0  0  0  0  0  0  0  0  0  0  0  0
    0.2153  -52.4379  -21.6729 C   0  0  0  0  0  0  0  0  0  0  0  0
   -0.3246  -51.6700  -17.5139 N   0  0  0  0  0  0  0  0  0  0  0  0
   -1.4347  -52.2882  -16.8161 C   0  0  0  0  0  0  0  0  0  0  0  0
   -1.5695  -51.6093  -15.4704 C   0  0  0  0  0  0  0  0  0  0  0  0
   -1.5671  -50.1177  -15.6478 C   0  0  0  0  0  0  0  0  0  0  0  0
   -0.2937  -49.6494  -16.2548 C   0  0  0  0  0  0  0  0  0  0  0  0
    0.5556  -50.8413  -16.7191 C   0  0  0  0  0  0  0  0  0  0  0  0
    0.4437  -48.7164  -15.4737 N   0  0  0  0  0  0  0  0  0  0  0  0
   -0.0022  -48.4914  -14.1431 C   0  0  0  0  0  0  0  0  0  0  0  0
    1.1807  -48.8118  -13.2575 C   0  0  0  0  0  0  0  0  0  0  0  0
    2.3767  -48.5551  -14.1190 C   0  0  0  0  0  0  0  0  0  0  0  0
    1.8560  -48.7963  -15.5209 C   0  0  0  0  0  0  0  0  0  0  0  0
   -1.4695  -54.8775  -22.2969 C   0  0  0  0  0  0  0  0  0  0  0  0
   -0.5480  -54.6963  -21.2497 O   0  0  0  0  0  0  0  0  0  0  0  0
    3.2013  -49.1148  -24.2156 N   0  0  0  0  0  0  0  0  0  0  0  0
    3.6857  -48.6560  -25.0368 H   0  0  0  0  0  0  0  0  0  0  0  0
    3.3633  -48.4713  -22.9821 C   0  0  0  0  0  0  0  0  0  0  0  0
    2.3014  -48.1405  -22.1661 C   0  0  0  0  0  0  0  0  0  0  0  0
    2.4885  -47.4734  -20.9567 C   0  0  0  0  0  0  0  0  0  0  0  0
    3.7496  -47.1368  -20.5675 C   0  0  0  0  0  0  0  0  0  0  0  0
    4.8479  -47.4556  -21.3674 C   0  0  0  0  0  0  0  0  0  0  0  0
    4.6643  -48.1150  -22.5605 C   0  0  0  0  0  0  0  0  0  0  0  0
    6.0339  -48.5236  -23.5297 S   0  0  0  0  0  0  0  0  0  0  0  0
    7.1789  -47.5995  -23.1565 O   0  0  0  0  0  0  0  0  0  0  0  0
    5.7967  -48.3458  -25.0104 O   0  0  0  0  0  0  0  0  0  0  0  0
    6.6454  -50.1680  -23.2123 C   0  0  0  0  0  0  0  0  0  0  0  0
    8.1649  -50.1831  -23.4611 C   0  0  0  0  0  0  0  0  0  0  0  0
    6.4774  -50.5781  -21.7697 C   0  0  0  0  0  0  0  0  0  0  0  0
    6.0640  -51.2097  -24.1080 C   0  0  0  0  0  0  0  0  0  0  0  0
 27 28  1  0  0  0
 28 10  1  0  0  0
 10 11  2  0  0  0
 11 12  1  0  0  0
 12 13  2  0  0  0
 13 14  1  0  0  0
 14 15  2  0  0  0
 15  8  1  0  0  0
  8  1  1  0  0  0
  1  2  2  0  0  0
  2  3  1  0  0  0
  3  4  2  0  0  0
  4  5  1  0  0  0
  4  6  1  0  0  0
  6 29  1  0  0  0
 29 31  1  0  0  0
 31 32  2  0  0  0
 32 33  1  0  0  0
 33 34  2  0  0  0
 34 35  1  0  0  0
 35 36  2  0  0  0
 36 37  1  0  0  0
 37 38  2  0  0  0
 37 39  2  0  0  0
 37 40  1  0  0  0
 40 41  1  0  0  0
 40 42  1  0  0  0
 40 43  1  0  0  0
  6  7  2  0  0  0
 12 16  1  0  0  0
 16 17  1  0  0  0
 17 18  1  0  0  0
 18 19  1  0  0  0
 19 20  1  0  0  0
 20 21  1  0  0  0
 20 22  1  0  0  0
 22 23  1  0  0  0
 23 24  1  0  0  0
 24 25  1  0  0  0
 25 26  1  0  0  0
 15 10  1  0  0  0
  7  1  1  0  0  0
 21 16  1  0  0  0
 26 22  1  0  0  0
 36 31  1  0  0  0
  8  9  1  0  0  0
 29 30  1  0  0  0
M  END
> <minimizedAffinity>
-7.20887

> <CNNscore>
0.0657863021

> <CNNaffinity>
7.1611771584

> <CNN_VS>
0.4711073637

> <CNNaffinity_variance>
0.1523946226

$$$$
[H]C([H])=C([H])C(=O)N1C([H])([H])C([H])([H])N(C2([H])C([H])([H])C([H])([H])N(c3c([H])c([H])c(N([H])c4nc([H])c(Cl)c(N([H])c5c([H])c([H])c([H])c([H])c5S(=O)(=O)C([H])(C([H])([H])[H])C([H])([H])[H])n4)c(OC([H])([H])[H])c3[H])C([H])([H])C2([H])[H])C([H])([H])C1([H])[H]


 47 51  0  0  0  0  0  0  0  0999 V2000
   -0.4517  -53.3096  -20.6970 C   0  0  0  0  0  0  0  0  0  0  0  0
    0.3336  -52.7917  -21.6848 C   0  0  0  0  0  0  0  0  0  0  0  0
    1.1654  -51.7002  -21.4722 C   0  0  0  0  0  0  0  0  0  0  0  0
    1.1463  -51.1785  -20.2108 C   0  0  0  0  0  0  0  0  0  0  0  0
    0.3427  -51.7017  -19.1837 C   0  0  0  0  0  0  0  0  0  0  0  0
   -0.4643  -52.7709  -19.4116 C   0  0  0  0  0  0  0  0  0  0  0  0
    1.9912  -51.1395  -22.4668 N   0  0  0  0  0  0  0  0  0  0  0  0
    2.1195  -49.7056  -22.4780 C   0  0  0  0  0  0  0  0  0  0  0  0
    3.2796  -49.1564  -23.2190 C   0  0  0  0  0  0  0  0  0  0  0  0
    3.9207  -50.0688  -24.2140 C   0  0  0  0  0  0  0  0  0  0  0  0
    2.9472  -51.1116  -24.6502 C   0  0  0  0  0  0  0  0  0  0  0  0
    2.6584  -51.9868  -23.4183 C   0  0  0  0  0  0  0  0  0  0  0  0
    4.4618  -49.3203  -25.3647 N   0  0  0  0  0  0  0  0  0  0  0  0
    3.4313  -49.2259  -26.3240 C   0  0  0  0  0  0  0  0  0  0  0  0
    3.4415  -48.0154  -27.1998 C   0  0  0  0  0  0  0  0  0  0  0  0
    4.0082  -46.8536  -26.5755 N   0  0  0  0  0  0  0  0  0  0  0  0
    5.2497  -47.0431  -25.8993 C   0  0  0  0  0  0  0  0  0  0  0  0
    5.0042  -48.1198  -24.8581 C   0  0  0  0  0  0  0  0  0  0  0  0
    3.3685  -45.6143  -26.6360 C   0  0  0  0  0  0  0  0  0  0  0  0
    2.2459  -45.4630  -27.2503 O   0  0  0  0  0  0  0  0  0  0  0  0
    3.8964  -44.4007  -26.0256 C   0  0  0  0  0  0  0  0  0  0  0  0
    4.4190  -43.4286  -26.7551 C   0  0  0  0  0  0  0  0  0  0  0  0
   -1.3952  -54.8875  -22.2874 C   0  0  0  0  0  0  0  0  0  0  0  0
   -1.2525  -54.3903  -20.9721 O   0  0  0  0  0  0  0  0  0  0  0  0
   -1.2934  -53.3610  -18.4561 N   0  0  0  0  0  0  0  0  0  0  0  0
   -1.6044  -54.3767  -18.6533 H   0  0  0  0  0  0  0  0  0  0  0  0
   -1.7799  -52.7960  -17.2610 C   0  0  0  0  0  0  0  0  0  0  0  0
   -3.0537  -52.7588  -16.8883 N   0  0  0  0  0  0  0  0  0  0  0  0
   -3.4859  -52.2079  -15.7593 C   0  0  0  0  0  0  0  0  0  0  0  0
   -2.5448  -51.6392  -14.9242 C   0  0  0  0  0  0  0  0  0  0  0  0
   -3.0622  -50.9077  -13.4376 Cl  0  0  0  0  0  0  0  0  0  0  0  0
   -1.1659  -51.6399  -15.2538 C   0  0  0  0  0  0  0  0  0  0  0  0
   -0.8946  -52.2232  -16.4041 N   0  0  0  0  0  0  0  0  0  0  0  0
   -0.2867  -51.0365  -14.3380 N   0  0  0  0  0  0  0  0  0  0  0  0
   -0.3333  -49.9693  -14.2750 H   0  0  0  0  0  0  0  0  0  0  0  0
    0.6515  -51.7211  -13.5281 C   0  0  0  0  0  0  0  0  0  0  0  0
    0.3178  -52.7534  -12.6853 C   0  0  0  0  0  0  0  0  0  0  0  0
    1.2859  -53.4291  -11.9354 C   0  0  0  0  0  0  0  0  0  0  0  0
    2.5909  -53.0346  -12.0615 C   0  0  0  0  0  0  0  0  0  0  0  0
    2.9349  -52.0046  -12.9000 C   0  0  0  0  0  0  0  0  0  0  0  0
    1.9899  -51.3125  -13.6595 C   0  0  0  0  0  0  0  0  0  0  0  0
    2.4312  -50.0058  -14.6873 S   0  0  0  0  0  0  0  0  0  0  0  0
    1.4692  -48.8488  -14.3513 O   0  0  0  0  0  0  0  0  0  0  0  0
    3.7923  -49.4278  -14.4021 O   0  0  0  0  0  0  0  0  0  0  0  0
    2.2478  -50.2893  -16.4046 C   0  0  0  0  0  0  0  0  0  0  0  0
    2.0632  -48.9938  -17.1828 C   0  0  0  0  0  0  0  0  0  0  0  0
    3.5971  -50.8462  -16.9004 C   0  0  0  0  0  0  0  0  0  0  0  0
 23 24  1  0  0  0
 24  1  1  0  0  0
  1  2  2  0  0  0
  2  3  1  0  0  0
  3  4  2  0  0  0
  4  5  1  0  0  0
  5  6  2  0  0  0
  6 25  1  0  0  0
 25 27  1  0  0  0
 27 28  2  0  0  0
 28 29  1  0  0  0
 29 30  2  0  0  0
 30 31  1  0  0  0
 30 32  1  0  0  0
 32 34  1  0  0  0
 34 36  1  0  0  0
 36 37  2  0  0  0
 37 38  1  0  0  0
 38 39  2  0  0  0
 39 40  1  0  0  0
 40 41  2  0  0  0
 41 42  1  0  0  0
 42 43  2  0  0  0
 42 44  2  0  0  0
 42 45  1  0  0  0
 45 46  1  0  0  0
 45 47  1  0  0  0
 32 33  2  0  0  0
  3  7  1  0  0  0
  7  8  1  0  0  0
  8  9  1  0  0  0
  9 10  1  0  0  0
 10 11  1  0  0  0
 11 12  1  0  0  0
 10 13  1  0  0  0
 13 14  1  0  0  0
 14 15  1  0  0  0
 15 16  1  0  0  0
 16 17  1  0  0  0
 17 18  1  0  0  0
 16 19  1  0  0  0
 19 20  2  0  0  0
 19 21  1  0  0  0
 21 22  2  0  0  0
  6  1  1  0  0  0
 33 27  1  0  0  0
 12  7  1  0  0  0
 18 13  1  0  0  0
 41 36  1  0  0  0
 25 26  1  0  0  0
 34 35  1  0  0  0
M  END
> <minimizedAffinity>
-7.87328

> <CNNscore>
0.1802674383

> <CNNaffinity>
7.2771329880

> <CNN_VS>
1.3118301630

> <CNNaffinity_variance>
0.0854881108

$$$$
[H]C([H])=C([H])C(=O)N1C([H])([H])C([H])([H])N(C2([H])C([H])([H])C([H])([H])N(c3c([H])c([H])c(N([H])c4nc([H])c(Cl)c(N([H])c5c([H])c([H])c([H])c([H])c5S(=O)(=O)C([H])(C([H])([H])[H])C([H])([H])[H])n4)c(OC([H])([H])[H])c3[H])C([H])([H])C2([H])[H])C([H])([H])C1([H])[H]


 47 51  0  0  0  0  0  0  0  0999 V2000
   -0.2897  -52.6310  -20.6229 C   0  0  0  0  0  0  0  0  0  0  0  0
    0.3573  -51.9271  -21.5958 C   0  0  0  0  0  0  0  0  0  0  0  0
    1.3504  -51.0017  -21.3025 C   0  0  0  0  0  0  0  0  0  0  0  0
    1.6373  -50.8416  -19.9774 C   0  0  0  0  0  0  0  0  0  0  0  0
    0.9790  -51.5600  -18.9648 C   0  0  0  0  0  0  0  0  0  0  0  0
    0.0101  -52.4616  -19.2723 C   0  0  0  0  0  0  0  0  0  0  0  0
    2.0412  -50.2580  -22.2798 N   0  0  0  0  0  0  0  0  0  0  0  0
    2.4256  -50.9540  -23.4800 C   0  0  0  0  0  0  0  0  0  0  0  0
    2.7582  -50.1084  -24.6509 C   0  0  0  0  0  0  0  0  0  0  0  0
    3.0860  -48.6790  -24.3625 C   0  0  0  0  0  0  0  0  0  0  0  0
    3.5477  -48.5370  -22.9510 C   0  0  0  0  0  0  0  0  0  0  0  0
    2.3401  -48.8689  -22.0574 C   0  0  0  0  0  0  0  0  0  0  0  0
    4.0831  -48.1500  -25.3126 N   0  0  0  0  0  0  0  0  0  0  0  0
    4.3112  -46.8001  -24.9709 C   0  0  0  0  0  0  0  0  0  0  0  0
    5.6732  -46.2579  -25.2595 C   0  0  0  0  0  0  0  0  0  0  0  0
    6.7143  -47.2443  -25.1980 N   0  0  0  0  0  0  0  0  0  0  0  0
    6.4632  -48.4700  -25.8828 C   0  0  0  0  0  0  0  0  0  0  0  0
    5.1847  -49.0322  -25.2888 C   0  0  0  0  0  0  0  0  0  0  0  0
    7.9007  -47.0025  -24.5033 C   0  0  0  0  0  0  0  0  0  0  0  0
    8.1088  -45.8890  -23.8889 O   0  0  0  0  0  0  0  0  0  0  0  0
    8.9931  -47.9627  -24.4090 C   0  0  0  0  0  0  0  0  0  0  0  0
   10.1092  -47.8136  -25.1035 C   0  0  0  0  0  0  0  0  0  0  0  0
   -1.0278  -54.5240  -21.9575 C   0  0  0  0  0  0  0  0  0  0  0  0
   -1.2630  -53.5313  -20.9794 O   0  0  0  0  0  0  0  0  0  0  0  0
   -0.6950  -53.2226  -18.3385 N   0  0  0  0  0  0  0  0  0  0  0  0
   -0.5265  -54.2895  -18.3646 H   0  0  0  0  0  0  0  0  0  0  0  0
   -1.6050  -52.7733  -17.3618 C   0  0  0  0  0  0  0  0  0  0  0  0
   -2.8848  -53.1181  -17.2836 N   0  0  0  0  0  0  0  0  0  0  0  0
   -3.7243  -52.6686  -16.3571 C   0  0  0  0  0  0  0  0  0  0  0  0
   -3.2276  -51.7867  -15.4181 C   0  0  0  0  0  0  0  0  0  0  0  0
   -4.2869  -51.1729  -14.1877 Cl  0  0  0  0  0  0  0  0  0  0  0  0
   -1.8720  -51.3718  -15.4364 C   0  0  0  0  0  0  0  0  0  0  0  0
   -1.1665  -51.9037  -16.4144 N   0  0  0  0  0  0  0  0  0  0  0  0
   -1.4625  -50.4719  -14.4374 N   0  0  0  0  0  0  0  0  0  0  0  0
   -1.2768  -50.8942  -13.4719 H   0  0  0  0  0  0  0  0  0  0  0  0
   -1.3041  -49.0750  -14.6060 C   0  0  0  0  0  0  0  0  0  0  0  0
   -2.3280  -48.2317  -14.9640 C   0  0  0  0  0  0  0  0  0  0  0  0
   -2.1344  -46.8512  -15.0773 C   0  0  0  0  0  0  0  0  0  0  0  0
   -0.8860  -46.3516  -14.8197 C   0  0  0  0  0  0  0  0  0  0  0  0
    0.1435  -47.1850  -14.4618 C   0  0  0  0  0  0  0  0  0  0  0  0
   -0.0209  -48.5660  -14.3418 C   0  0  0  0  0  0  0  0  0  0  0  0
    1.2845  -49.6027  -13.9176 S   0  0  0  0  0  0  0  0  0  0  0  0
    0.8159  -50.4048  -12.6871 O   0  0  0  0  0  0  0  0  0  0  0  0
    1.5854  -50.6671  -14.9396 O   0  0  0  0  0  0  0  0  0  0  0  0
    2.7639  -48.8064  -13.4275 C   0  0  0  0  0  0  0  0  0  0  0  0
    2.9500  -48.8226  -11.9164 C   0  0  0  0  0  0  0  0  0  0  0  0
    3.9220  -49.6696  -13.9663 C   0  0  0  0  0  0  0  0  0  0  0  0
 23 24  1  0  0  0
 24  1  1  0  0  0
  1  2  2  0  0  0
  2  3  1  0  0  0
  3  4  2  0  0  0
  4  5  1  0  0  0
  5  6  2  0  0  0
  6 25  1  0  0  0
 25 27  1  0  0  0
 27 28  2  0  0  0
 28 29  1  0  0  0
 29 30  2  0  0  0
 30 31  1  0  0  0
 30 32  1  0  0  0
 32 34  1  0  0  0
 34 36  1  0  0  0
 36 37  2  0  0  0
 37 38  1  0  0  0
 38 39  2  0  0  0
 39 40  1  0  0  0
 40 41  2  0  0  0
 41 42  1  0  0  0
 42 43  2  0  0  0
 42 44  2  0  0  0
 42 45  1  0  0  0
 45 46  1  0  0  0
 45 47  1  0  0  0
 32 33  2  0  0  0
  3  7  1  0  0  0
  7  8  1  0  0  0
  8  9  1  0  0  0
  9 10  1  0  0  0
 10 11  1  0  0  0
 11 12  1  0  0  0
 10 13  1  0  0  0
 13 14  1  0  0  0
 14 15  1  0  0  0
 15 16  1  0  0  0
 16 17  1  0  0  0
 17 18  1  0  0  0
 16 19  1  0  0  0
 19 20  2  0  0  0
 19 21  1  0  0  0
 21 22  2  0  0  0
  6  1  1  0  0  0
 33 27  1  0  0  0
 12  7  1  0  0  0
 18 13  1  0  0  0
 41 36  1  0  0  0
 25 26  1  0  0  0
 34 35  1  0  0  0
M  END
> <minimizedAffinity>
-6.76059

> <CNNscore>
0.1318110079

> <CNNaffinity>
6.9909553528

> <CNN_VS>
0.9214848876

> <CNNaffinity_variance>
0.1009942293

$$$$
[H]C([H])=C([H])C(=O)N1C([H])([H])C([H])([H])N(C2([H])C([H])([H])C([H])([H])N(c3c([H])c([H])c(N([H])c4nc([H])c(Cl)c(N([H])c5c([H])c([H])c([H])c([H])c5S(=O)(=O)C([H])(C([H])([H])[H])C([H])([H])[H])n4)c(OC([H])([H])[H])c3[H])C([H])([H])C2([H])[H])C([H])([H])C1([H])[H]


 47 51  0  0  0  0  0  0  0  0999 V2000
    0.6400  -51.8980  -23.6074 C   0  0  0  0  0  0  0  0  0  0  0  0
    1.3110  -51.1154  -24.5006 C   0  0  0  0  0  0  0  0  0  0  0  0
    2.3939  -50.3299  -24.1279 C   0  0  0  0  0  0  0  0  0  0  0  0
    2.7434  -50.3911  -22.8097 C   0  0  0  0  0  0  0  0  0  0  0  0
    2.0614  -51.1929  -21.8787 C   0  0  0  0  0  0  0  0  0  0  0  0
    1.0042  -51.9549  -22.2633 C   0  0  0  0  0  0  0  0  0  0  0  0
    3.1120  -49.5111  -25.0220 N   0  0  0  0  0  0  0  0  0  0  0  0
    3.2227  -49.9688  -26.3824 C   0  0  0  0  0  0  0  0  0  0  0  0
    3.5916  -48.9470  -27.3906 C   0  0  0  0  0  0  0  0  0  0  0  0
    4.2245  -47.6989  -26.8661 C   0  0  0  0  0  0  0  0  0  0  0  0
    4.8508  -47.9644  -25.5384 C   0  0  0  0  0  0  0  0  0  0  0  0
    3.7019  -48.2814  -24.5654 C   0  0  0  0  0  0  0  0  0  0  0  0
    5.2015  -47.1443  -27.8226 N   0  0  0  0  0  0  0  0  0  0  0  0
    6.1122  -48.1757  -28.1355 C   0  0  0  0  0  0  0  0  0  0  0  0
    6.7208  -48.1398  -29.4995 C   0  0  0  0  0  0  0  0  0  0  0  0
    5.8760  -47.5431  -30.4951 N   0  0  0  0  0  0  0  0  0  0  0  0
    5.2638  -46.3040  -30.1425 C   0  0  0  0  0  0  0  0  0  0  0  0
    4.4639  -46.5714  -28.8807 C   0  0  0  0  0  0  0  0  0  0  0  0
    5.6753  -48.1531  -31.7345 C   0  0  0  0  0  0  0  0  0  0  0  0
    6.2359  -49.2740  -32.0343 O   0  0  0  0  0  0  0  0  0  0  0  0
    4.8333  -47.5941  -32.7845 C   0  0  0  0  0  0  0  0  0  0  0  0
    5.3433  -47.1645  -33.9272 C   0  0  0  0  0  0  0  0  0  0  0  0
   -0.2422  -53.7598  -24.8978 C   0  0  0  0  0  0  0  0  0  0  0  0
   -0.4232  -52.6512  -24.0399 O   0  0  0  0  0  0  0  0  0  0  0  0
    0.2687  -52.7833  -21.4140 N   0  0  0  0  0  0  0  0  0  0  0  0
   -0.0634  -53.7231  -21.8308 H   0  0  0  0  0  0  0  0  0  0  0  0
   -0.0989  -52.5469  -20.0749 C   0  0  0  0  0  0  0  0  0  0  0  0
   -0.9158  -53.3058  -19.3541 N   0  0  0  0  0  0  0  0  0  0  0  0
   -1.2549  -53.0517  -18.0949 C   0  0  0  0  0  0  0  0  0  0  0  0
   -0.7200  -51.9245  -17.5037 C   0  0  0  0  0  0  0  0  0  0  0  0
   -1.1339  -51.5518  -15.8598 Cl  0  0  0  0  0  0  0  0  0  0  0  0
    0.1598  -51.0653  -18.2093 C   0  0  0  0  0  0  0  0  0  0  0  0
    0.4001  -51.4504  -19.4467 N   0  0  0  0  0  0  0  0  0  0  0  0
    0.6517  -49.9435  -17.5199 N   0  0  0  0  0  0  0  0  0  0  0  0
    0.0880  -49.6329  -16.6650 H   0  0  0  0  0  0  0  0  0  0  0  0
    1.7998  -49.1973  -17.8801 C   0  0  0  0  0  0  0  0  0  0  0  0
    1.9967  -48.6612  -19.1296 C   0  0  0  0  0  0  0  0  0  0  0  0
    3.1276  -47.8943  -19.4278 C   0  0  0  0  0  0  0  0  0  0  0  0
    4.0462  -47.6859  -18.4342 C   0  0  0  0  0  0  0  0  0  0  0  0
    3.8594  -48.2170  -17.1829 C   0  0  0  0  0  0  0  0  0  0  0  0
    2.7410  -48.9865  -16.8577 C   0  0  0  0  0  0  0  0  0  0  0  0
    2.5316  -49.6684  -15.2924 S   0  0  0  0  0  0  0  0  0  0  0  0
    1.2321  -49.0607  -14.7276 O   0  0  0  0  0  0  0  0  0  0  0  0
    2.2573  -51.1491  -15.2952 O   0  0  0  0  0  0  0  0  0  0  0  0
    3.7772  -49.2913  -14.1223 C   0  0  0  0  0  0  0  0  0  0  0  0
    3.3138  -48.2578  -13.1049 C   0  0  0  0  0  0  0  0  0  0  0  0
    3.9990  -50.5727  -13.2944 C   0  0  0  0  0  0  0  0  0  0  0  0
 23 24  1  0  0  0
 24  1  1  0  0  0
  1  2  2  0  0  0
  2  3  1  0  0  0
  3  4  2  0  0  0
  4  5  1  0  0  0
  5  6  2  0  0  0
  6 25  1  0  0  0
 25 27  1  0  0  0
 27 28  2  0  0  0
 28 29  1  0  0  0
 29 30  2  0  0  0
 30 31  1  0  0  0
 30 32  1  0  0  0
 32 34  1  0  0  0
 34 36  1  0  0  0
 36 37  2  0  0  0
 37 38  1  0  0  0
 38 39  2  0  0  0
 39 40  1  0  0  0
 40 41  2  0  0  0
 41 42  1  0  0  0
 42 43  2  0  0  0
 42 44  2  0  0  0
 42 45  1  0  0  0
 45 46  1  0  0  0
 45 47  1  0  0  0
 32 33  2  0  0  0
  3  7  1  0  0  0
  7  8  1  0  0  0
  8  9  1  0  0  0
  9 10  1  0  0  0
 10 11  1  0  0  0
 11 12  1  0  0  0
 10 13  1  0  0  0
 13 14  1  0  0  0
 14 15  1  0  0  0
 15 16  1  0  0  0
 16 17  1  0  0  0
 17 18  1  0  0  0
 16 19  1  0  0  0
 19 20  2  0  0  0
 19 21  1  0  0  0
 21 22  2  0  0  0
  6  1  1  0  0  0
 33 27  1  0  0  0
 12  7  1  0  0  0
 18 13  1  0  0  0
 41 36  1  0  0  0
 25 26  1  0  0  0
 34 35  1  0  0  0
M  END
> <minimizedAffinity>
-6.83683

> <CNNscore>
0.1223481670

> <CNNaffinity>
6.9936256409

> <CNN_VS>
0.8556572795

> <CNNaffinity_variance>
0.1586036384

$$$$
[H]C([H])=C([H])C(=O)N1C([H])([H])C([H])([H])N(C2([H])C([H])([H])C([H])([H])N(c3c([H])c([H])c(N([H])c4nc([H])c(Cl)c(N([H])c5c([H])c([H])c([H])c([H])c5S(=O)(=O)C([H])(C([H])([H])[H])C([H])([H])[H])n4)c(OC([H])([H])[H])c3[H])C([H])([H])C2([H])[H])C([H])([H])C1([H])[H]


 47 51  0  0  0  0  0  0  0  0999 V2000
    0.4403  -52.6667  -20.4095 C   0  0  0  0  0  0  0  0  0  0  0  0
    1.2096  -51.8989  -21.2336 C   0  0  0  0  0  0  0  0  0  0  0  0
    1.6875  -50.6527  -20.8502 C   0  0  0  0  0  0  0  0  0  0  0  0
    1.3374  -50.2452  -19.5951 C   0  0  0  0  0  0  0  0  0  0  0  0
    0.5459  -51.0257  -18.7355 C   0  0  0  0  0  0  0  0  0  0  0  0
    0.0882  -52.2430  -19.1292 C   0  0  0  0  0  0  0  0  0  0  0  0
    2.4854  -49.8329  -21.6728 N   0  0  0  0  0  0  0  0  0  0  0  0
    2.0300  -48.4846  -21.8906 C   0  0  0  0  0  0  0  0  0  0  0  0
    3.0431  -47.5212  -22.3827 C   0  0  0  0  0  0  0  0  0  0  0  0
    4.2668  -48.1098  -23.0069 C   0  0  0  0  0  0  0  0  0  0  0  0
    3.9747  -49.4865  -23.5016 C   0  0  0  0  0  0  0  0  0  0  0  0
    3.6925  -50.3497  -22.2597 C   0  0  0  0  0  0  0  0  0  0  0  0
    4.7923  -47.2492  -24.0841 N   0  0  0  0  0  0  0  0  0  0  0  0
    5.4329  -48.0917  -25.0173 C   0  0  0  0  0  0  0  0  0  0  0  0
    5.4260  -47.6399  -26.4414 C   0  0  0  0  0  0  0  0  0  0  0  0
    4.2813  -46.8479  -26.7922 N   0  0  0  0  0  0  0  0  0  0  0  0
    3.9400  -45.7978  -25.8894 C   0  0  0  0  0  0  0  0  0  0  0  0
    3.7177  -46.4557  -24.5399 C   0  0  0  0  0  0  0  0  0  0  0  0
    3.5532  -47.1031  -27.9557 C   0  0  0  0  0  0  0  0  0  0  0  0
    3.8759  -48.0580  -28.7586 O   0  0  0  0  0  0  0  0  0  0  0  0
    2.3863  -46.3320  -28.3653 C   0  0  0  0  0  0  0  0  0  0  0  0
    2.3694  -45.6492  -29.4984 C   0  0  0  0  0  0  0  0  0  0  0  0
   -0.7186  -54.0250  -22.0591 C   0  0  0  0  0  0  0  0  0  0  0  0
   -0.0010  -53.8902  -20.8490 O   0  0  0  0  0  0  0  0  0  0  0  0
   -0.6991  -53.0892  -18.3464 N   0  0  0  0  0  0  0  0  0  0  0  0
   -0.5793  -54.1493  -18.5175 H   0  0  0  0  0  0  0  0  0  0  0  0
   -1.6365  -52.7338  -17.3570 C   0  0  0  0  0  0  0  0  0  0  0  0
   -2.8857  -53.1776  -17.2835 N   0  0  0  0  0  0  0  0  0  0  0  0
   -3.7530  -52.8156  -16.3444 C   0  0  0  0  0  0  0  0  0  0  0  0
   -3.3212  -51.9201  -15.3863 C   0  0  0  0  0  0  0  0  0  0  0  0
   -4.4190  -51.4181  -14.1391 Cl  0  0  0  0  0  0  0  0  0  0  0  0
   -2.0016  -51.4020  -15.3986 C   0  0  0  0  0  0  0  0  0  0  0  0
   -1.2617  -51.8553  -16.3906 N   0  0  0  0  0  0  0  0  0  0  0  0
   -1.6579  -50.4967  -14.3798 N   0  0  0  0  0  0  0  0  0  0  0  0
   -1.5349  -50.9139  -13.4021 H   0  0  0  0  0  0  0  0  0  0  0  0
   -1.4895  -49.1005  -14.5450 C   0  0  0  0  0  0  0  0  0  0  0  0
   -2.5003  -48.2534  -14.9298 C   0  0  0  0  0  0  0  0  0  0  0  0
   -2.2981  -46.8737  -15.0388 C   0  0  0  0  0  0  0  0  0  0  0  0
   -1.0548  -46.3790  -14.7493 C   0  0  0  0  0  0  0  0  0  0  0  0
   -0.0383  -47.2164  -14.3644 C   0  0  0  0  0  0  0  0  0  0  0  0
   -0.2115  -48.5967  -14.2480 C   0  0  0  0  0  0  0  0  0  0  0  0
    1.0783  -49.6384  -13.7896 S   0  0  0  0  0  0  0  0  0  0  0  0
    2.1667  -48.7338  -13.1778 O   0  0  0  0  0  0  0  0  0  0  0  0
    0.7380  -50.5877  -12.6712 O   0  0  0  0  0  0  0  0  0  0  0  0
    1.8612  -50.5040  -15.0937 C   0  0  0  0  0  0  0  0  0  0  0  0
    3.0398  -49.7304  -15.6686 C   0  0  0  0  0  0  0  0  0  0  0  0
    2.4964  -51.7593  -14.4634 C   0  0  0  0  0  0  0  0  0  0  0  0
 23 24  1  0  0  0
 24  1  1  0  0  0
  1  2  2  0  0  0
  2  3  1  0  0  0
  3  4  2  0  0  0
  4  5  1  0  0  0
  5  6  2  0  0  0
  6 25  1  0  0  0
 25 27  1  0  0  0
 27 28  2  0  0  0
 28 29  1  0  0  0
 29 30  2  0  0  0
 30 31  1  0  0  0
 30 32  1  0  0  0
 32 34  1  0  0  0
 34 36  1  0  0  0
 36 37  2  0  0  0
 37 38  1  0  0  0
 38 39  2  0  0  0
 39 40  1  0  0  0
 40 41  2  0  0  0
 41 42  1  0  0  0
 42 43  2  0  0  0
 42 44  2  0  0  0
 42 45  1  0  0  0
 45 46  1  0  0  0
 45 47  1  0  0  0
 32 33  2  0  0  0
  3  7  1  0  0  0
  7  8  1  0  0  0
  8  9  1  0  0  0
  9 10  1  0  0  0
 10 11  1  0  0  0
 11 12  1  0  0  0
 10 13  1  0  0  0
 13 14  1  0  0  0
 14 15  1  0  0  0
 15 16  1  0  0  0
 16 17  1  0  0  0
 17 18  1  0  0  0
 16 19  1  0  0  0
 19 20  2  0  0  0
 19 21  1  0  0  0
 21 22  2  0  0  0
  6  1  1  0  0  0
 33 27  1  0  0  0
 12  7  1  0  0  0
 18 13  1  0  0  0
 41 36  1  0  0  0
 25 26  1  0  0  0
 34 35  1  0  0  0
M  END
> <minimizedAffinity>
-7.31694

> <CNNscore>
0.1053202227

> <CNNaffinity>
7.0539793968

> <CNN_VS>
0.7429266572

> <CNNaffinity_variance>
0.1283957362

$$$$
[H]C([H])=C([H])C(=O)N1C([H])([H])C([H])([H])N(C2([H])C([H])([H])C([H])([H])N(c3c([H])c([H])c(N([H])c4nc([H])c(Cl)c(N([H])c5c([H])c([H])c([H])c([H])c5S(=O)(=O)C([H])(C([H])([H])[H])C([H])([H])[H])n4)c(OC([H])([H])[H])c3[H])C([H])([H])C2([H])[H])C([H])([H])C1([H])[H]


 47 51  0  0  0  0  0  0  0  0999 V2000
    2.2971  -51.7283  -20.6169 C   0  0  0  0  0  0  0  0  0  0  0  0
    2.8515  -50.9078  -21.5550 C   0  0  0  0  0  0  0  0  0  0  0  0
    2.1729  -50.5402  -22.7095 C   0  0  0  0  0  0  0  0  0  0  0  0
    0.9151  -51.0531  -22.8453 C   0  0  0  0  0  0  0  0  0  0  0  0
    0.3315  -51.8991  -21.8870 C   0  0  0  0  0  0  0  0  0  0  0  0
    1.0118  -52.2470  -20.7634 C   0  0  0  0  0  0  0  0  0  0  0  0
    2.7120  -49.6940  -23.6989 N   0  0  0  0  0  0  0  0  0  0  0  0
    2.8674  -50.2478  -25.0187 C   0  0  0  0  0  0  0  0  0  0  0  0
    3.0241  -49.2737  -26.1247 C   0  0  0  0  0  0  0  0  0  0  0  0
    3.4396  -47.8920  -25.7350 C   0  0  0  0  0  0  0  0  0  0  0  0
    4.1364  -47.9224  -24.4162 C   0  0  0  0  0  0  0  0  0  0  0  0
    3.0867  -48.3441  -23.3735 C   0  0  0  0  0  0  0  0  0  0  0  0
    4.2785  -47.2656  -26.7745 N   0  0  0  0  0  0  0  0  0  0  0  0
    5.0918  -46.3068  -26.1340 C   0  0  0  0  0  0  0  0  0  0  0  0
    6.4310  -46.0501  -26.7447 C   0  0  0  0  0  0  0  0  0  0  0  0
    6.9860  -47.1873  -27.4225 N   0  0  0  0  0  0  0  0  0  0  0  0
    6.1110  -47.8824  -28.3088 C   0  0  0  0  0  0  0  0  0  0  0  0
    4.9175  -48.3112  -27.4749 C   0  0  0  0  0  0  0  0  0  0  0  0
    8.3100  -47.5783  -27.2159 C   0  0  0  0  0  0  0  0  0  0  0  0
    9.0852  -46.9385  -26.4094 O   0  0  0  0  0  0  0  0  0  0  0  0
    8.9291  -48.7200  -27.8772 C   0  0  0  0  0  0  0  0  0  0  0  0
    9.3944  -49.7506  -27.1904 C   0  0  0  0  0  0  0  0  0  0  0  0
    3.5801  -51.0591  -18.6635 C   0  0  0  0  0  0  0  0  0  0  0  0
    3.0212  -52.0544  -19.4969 O   0  0  0  0  0  0  0  0  0  0  0  0
    0.5154  -53.0766  -19.7565 N   0  0  0  0  0  0  0  0  0  0  0  0
    0.7507  -54.1277  -19.8424 H   0  0  0  0  0  0  0  0  0  0  0  0
   -0.2593  -52.7152  -18.6370 C   0  0  0  0  0  0  0  0  0  0  0  0
   -1.5010  -53.1187  -18.3958 N   0  0  0  0  0  0  0  0  0  0  0  0
   -2.2131  -52.7516  -17.3360 C   0  0  0  0  0  0  0  0  0  0  0  0
   -1.6179  -51.8954  -16.4311 C   0  0  0  0  0  0  0  0  0  0  0  0
   -2.5094  -51.3885  -15.0307 Cl  0  0  0  0  0  0  0  0  0  0  0  0
   -0.2951  -51.4216  -16.6202 C   0  0  0  0  0  0  0  0  0  0  0  0
    0.2801  -51.8743  -17.7162 N   0  0  0  0  0  0  0  0  0  0  0  0
    0.2220  -50.5541  -15.6425 N   0  0  0  0  0  0  0  0  0  0  0  0
   -0.2814  -49.6163  -15.5326 H   0  0  0  0  0  0  0  0  0  0  0  0
    1.3496  -50.8156  -14.8270 C   0  0  0  0  0  0  0  0  0  0  0  0
    1.4985  -51.9588  -14.0797 C   0  0  0  0  0  0  0  0  0  0  0  0
    2.6501  -52.1935  -13.3216 C   0  0  0  0  0  0  0  0  0  0  0  0
    3.6394  -51.2472  -13.3410 C   0  0  0  0  0  0  0  0  0  0  0  0
    3.5006  -50.1018  -14.0836 C   0  0  0  0  0  0  0  0  0  0  0  0
    2.3624  -49.8412  -14.8487 C   0  0  0  0  0  0  0  0  0  0  0  0
    2.1899  -48.3893  -15.7547 S   0  0  0  0  0  0  0  0  0  0  0  0
    3.6081  -47.8033  -15.9044 O   0  0  0  0  0  0  0  0  0  0  0  0
    1.7419  -48.5982  -17.1772 O   0  0  0  0  0  0  0  0  0  0  0  0
    1.2347  -47.1295  -15.0039 C   0  0  0  0  0  0  0  0  0  0  0  0
    1.1131  -47.3226  -13.4986 C   0  0  0  0  0  0  0  0  0  0  0  0
    2.0379  -45.8229  -15.1599 C   0  0  0  0  0  0  0  0  0  0  0  0
 23 24  1  0  0  0
 24  1  1  0  0  0
  1  2  2  0  0  0
  2  3  1  0  0  0
  3  4  2  0  0  0
  4  5  1  0  0  0
  5  6  2  0  0  0
  6 25  1  0  0  0
 25 27  1  0  0  0
 27 28  2  0  0  0
 28 29  1  0  0  0
 29 30  2  0  0  0
 30 31  1  0  0  0
 30 32  1  0  0  0
 32 34  1  0  0  0
 34 36  1  0  0  0
 36 37  2  0  0  0
 37 38  1  0  0  0
 38 39  2  0  0  0
 39 40  1  0  0  0
 40 41  2  0  0  0
 41 42  1  0  0  0
 42 43  2  0  0  0
 42 44  2  0  0  0
 42 45  1  0  0  0
 45 46  1  0  0  0
 45 47  1  0  0  0
 32 33  2  0  0  0
  3  7  1  0  0  0
  7  8  1  0  0  0
  8  9  1  0  0  0
  9 10  1  0  0  0
 10 11  1  0  0  0
 11 12  1  0  0  0
 10 13  1  0  0  0
 13 14  1  0  0  0
 14 15  1  0  0  0
 15 16  1  0  0  0
 16 17  1  0  0  0
 17 18  1  0  0  0
 16 19  1  0  0  0
 19 20  2  0  0  0
 19 21  1  0  0  0
 21 22  2  0  0  0
  6  1  1  0  0  0
 33 27  1  0  0  0
 12  7  1  0  0  0
 18 13  1  0  0  0
 41 36  1  0  0  0
 25 26  1  0  0  0
 34 35  1  0  0  0
M  END
> <minimizedAffinity>
-6.50482

> <CNNscore>
0.0636515692

> <CNNaffinity>
6.6658010483

> <CNN_VS>
0.4242886901

> <CNNaffinity_variance>
0.1166643649

$$$$
[H]C([H])=C([H])C(=O)N1C([H])([H])C([H])([H])N(C2([H])C([H])([H])C([H])([H])N(c3c([H])c([H])c(N([H])c4nc([H])c(Cl)c(N([H])c5c([H])c([H])c([H])c([H])c5S(=O)(=O)C([H])(C([H])([H])[H])C([H])([H])[H])n4)c(OC([H])([H])[H])c3[H])C([H])([H])C2([H])[H])C([H])([H])C1([H])[H]


 47 51  0  0  0  0  0  0  0  0999 V2000
    0.9954  -51.8385  -25.5974 C   0  0  0  0  0  0  0  0  0  0  0  0
    1.5937  -50.8653  -26.3426 C   0  0  0  0  0  0  0  0  0  0  0  0
    2.5402  -50.0013  -25.8077 C   0  0  0  0  0  0  0  0  0  0  0  0
    2.8332  -50.1884  -24.4876 C   0  0  0  0  0  0  0  0  0  0  0  0
    2.2249  -51.1868  -23.7079 C   0  0  0  0  0  0  0  0  0  0  0  0
    1.3011  -52.0229  -24.2501 C   0  0  0  0  0  0  0  0  0  0  0  0
    3.1801  -48.9862  -26.5464 N   0  0  0  0  0  0  0  0  0  0  0  0
    2.7525  -47.6330  -26.3043 C   0  0  0  0  0  0  0  0  0  0  0  0
    3.6801  -46.5634  -26.7424 C   0  0  0  0  0  0  0  0  0  0  0  0
    4.7118  -46.9548  -27.7503 C   0  0  0  0  0  0  0  0  0  0  0  0
    4.2556  -48.1576  -28.5057 C   0  0  0  0  0  0  0  0  0  0  0  0
    4.2069  -49.3184  -27.4972 C   0  0  0  0  0  0  0  0  0  0  0  0
    5.0331  -45.8369  -28.6581 N   0  0  0  0  0  0  0  0  0  0  0  0
    6.1689  -46.2172  -29.4040 C   0  0  0  0  0  0  0  0  0  0  0  0
    6.2835  -45.6529  -30.7827 C   0  0  0  0  0  0  0  0  0  0  0  0
    5.0184  -45.3861  -31.4064 N   0  0  0  0  0  0  0  0  0  0  0  0
    4.0590  -44.6889  -30.6140 C   0  0  0  0  0  0  0  0  0  0  0  0
    3.8519  -45.5272  -29.3658 C   0  0  0  0  0  0  0  0  0  0  0  0
    4.7568  -45.7921  -32.7161 C   0  0  0  0  0  0  0  0  0  0  0  0
    5.6359  -46.4229  -33.4160 O   0  0  0  0  0  0  0  0  0  0  0  0
    3.4947  -45.5468  -33.4024 C   0  0  0  0  0  0  0  0  0  0  0  0
    3.3055  -45.9160  -34.6586 C   0  0  0  0  0  0  0  0  0  0  0  0
    0.4332  -53.5943  -27.1818 C   0  0  0  0  0  0  0  0  0  0  0  0
    0.0668  -52.6605  -26.1862 O   0  0  0  0  0  0  0  0  0  0  0  0
    0.6473  -53.0438  -23.5580 N   0  0  0  0  0  0  0  0  0  0  0  0
    0.4595  -53.9531  -24.1104 H   0  0  0  0  0  0  0  0  0  0  0  0
    0.1974  -53.0378  -22.2232 C   0  0  0  0  0  0  0  0  0  0  0  0
   -0.9656  -53.5180  -21.7994 N   0  0  0  0  0  0  0  0  0  0  0  0
   -1.3696  -53.4881  -20.5341 C   0  0  0  0  0  0  0  0  0  0  0  0
   -0.5208  -52.9199  -19.6051 C   0  0  0  0  0  0  0  0  0  0  0  0
   -1.0056  -52.8587  -17.9396 Cl  0  0  0  0  0  0  0  0  0  0  0  0
    0.7375  -52.3860  -19.9814 C   0  0  0  0  0  0  0  0  0  0  0  0
    0.9954  -52.4899  -21.2697 N   0  0  0  0  0  0  0  0  0  0  0  0
    1.5295  -51.8297  -18.9621 N   0  0  0  0  0  0  0  0  0  0  0  0
    1.2073  -52.0203  -17.9596 H   0  0  0  0  0  0  0  0  0  0  0  0
    2.6834  -51.0336  -19.1614 C   0  0  0  0  0  0  0  0  0  0  0  0
    3.5653  -51.2197  -20.1982 C   0  0  0  0  0  0  0  0  0  0  0  0
    4.6697  -50.3810  -20.3800 C   0  0  0  0  0  0  0  0  0  0  0  0
    4.8551  -49.3566  -19.4908 C   0  0  0  0  0  0  0  0  0  0  0  0
    3.9806  -49.1622  -18.4516 C   0  0  0  0  0  0  0  0  0  0  0  0
    2.8709  -49.9838  -18.2458 C   0  0  0  0  0  0  0  0  0  0  0  0
    1.7967  -49.7451  -16.9238 S   0  0  0  0  0  0  0  0  0  0  0  0
    2.0586  -48.3159  -16.4080 O   0  0  0  0  0  0  0  0  0  0  0  0
    0.3406  -49.7209  -17.3074 O   0  0  0  0  0  0  0  0  0  0  0  0
    2.0365  -50.7964  -15.5453 C   0  0  0  0  0  0  0  0  0  0  0  0
    2.6931  -50.0712  -14.3788 C   0  0  0  0  0  0  0  0  0  0  0  0
    0.6313  -51.1630  -15.0279 C   0  0  0  0  0  0  0  0  0  0  0  0
 23 24  1  0  0  0
 24  1  1  0  0  0
  1  2  2  0  0  0
  2  3  1  0  0  0
  3  4  2  0  0  0
  4  5  1  0  0  0
  5  6  2  0  0  0
  6 25  1  0  0  0
 25 27  1  0  0  0
 27 28  2  0  0  0
 28 29  1  0  0  0
 29 30  2  0  0  0
 30 31  1  0  0  0
 30 32  1  0  0  0
 32 34  1  0  0  0
 34 36  1  0  0  0
 36 37  2  0  0  0
 37 38  1  0  0  0
 38 39  2  0  0  0
 39 40  1  0  0  0
 40 41  2  0  0  0
 41 42  1  0  0  0
 42 43  2  0  0  0
 42 44  2  0  0  0
 42 45  1  0  0  0
 45 46  1  0  0  0
 45 47  1  0  0  0
 32 33  2  0  0  0
  3  7  1  0  0  0
  7  8  1  0  0  0
  8  9  1  0  0  0
  9 10  1  0  0  0
 10 11  1  0  0  0
 11 12  1  0  0  0
 10 13  1  0  0  0
 13 14  1  0  0  0
 14 15  1  0  0  0
 15 16  1  0  0  0
 16 17  1  0  0  0
 17 18  1  0  0  0
 16 19  1  0  0  0
 19 20  2  0  0  0
 19 21  1  0  0  0
 21 22  2  0  0  0
  6  1  1  0  0  0
 33 27  1  0  0  0
 12  7  1  0  0  0
 18 13  1  0  0  0
 41 36  1  0  0  0
 25 26  1  0  0  0
 34 35  1  0  0  0
M  END
> <minimizedAffinity>
-7.25895

> <CNNscore>
0.0591772012

> <CNNaffinity>
6.9402146339

> <CNN_VS>
0.4107024670

> <CNNaffinity_variance>
0.1609680355

$$$$
[H]C([H])=C([H])C(=O)N1C([H])([H])C([H])([H])N(C2([H])C([H])([H])C([H])([H])N(c3c([H])c([H])c(N([H])c4nc([H])c(Cl)c(N([H])c5c([H])c([H])c([H])c([H])c5S(=O)(=O)C([H])(C([H])([H])[H])C([H])([H])[H])n4)c(OC([H])([H])[H])c3[H])C([H])([H])C2([H])[H])C([H])([H])C1([H])[H]


 47 51  0  0  0  0  0  0  0  0999 V2000
    4.9354  -50.1650  -23.4481 C   0  0  0  0  0  0  0  0  0  0  0  0
    5.4444  -49.7964  -24.6587 C   0  0  0  0  0  0  0  0  0  0  0  0
    4.7355  -48.9981  -25.5467 C   0  0  0  0  0  0  0  0  0  0  0  0
    3.4959  -48.6062  -25.1302 C   0  0  0  0  0  0  0  0  0  0  0  0
    2.9591  -48.9782  -23.8860 C   0  0  0  0  0  0  0  0  0  0  0  0
    3.6689  -49.7596  -23.0306 C   0  0  0  0  0  0  0  0  0  0  0  0
    5.2290  -48.5960  -26.8038 N   0  0  0  0  0  0  0  0  0  0  0  0
    6.5906  -48.1310  -26.8532 C   0  0  0  0  0  0  0  0  0  0  0  0
    7.2301  -48.1142  -28.1901 C   0  0  0  0  0  0  0  0  0  0  0  0
    6.3072  -48.1492  -29.3651 C   0  0  0  0  0  0  0  0  0  0  0  0
    4.9613  -47.6403  -28.9711 C   0  0  0  0  0  0  0  0  0  0  0  0
    4.3846  -48.6531  -27.9667 C   0  0  0  0  0  0  0  0  0  0  0  0
    6.8566  -47.3943  -30.5076 N   0  0  0  0  0  0  0  0  0  0  0  0
    7.2399  -48.3363  -31.4856 C   0  0  0  0  0  0  0  0  0  0  0  0
    7.1608  -47.8919  -32.9099 C   0  0  0  0  0  0  0  0  0  0  0  0
    6.1394  -46.9135  -33.1554 N   0  0  0  0  0  0  0  0  0  0  0  0
    6.0820  -45.8190  -32.2426 C   0  0  0  0  0  0  0  0  0  0  0  0
    5.8932  -46.4267  -30.8648 C   0  0  0  0  0  0  0  0  0  0  0  0
    5.2596  -47.0396  -34.2317 C   0  0  0  0  0  0  0  0  0  0  0  0
    5.3259  -48.0370  -35.0450 O   0  0  0  0  0  0  0  0  0  0  0  0
    4.2067  -46.0780  -34.5330 C   0  0  0  0  0  0  0  0  0  0  0  0
    2.9574  -46.2730  -34.1436 C   0  0  0  0  0  0  0  0  0  0  0  0
    6.8481  -50.4631  -21.9776 C   0  0  0  0  0  0  0  0  0  0  0  0
    5.6874  -50.9564  -22.6156 O   0  0  0  0  0  0  0  0  0  0  0  0
    3.2220  -50.1768  -21.7757 N   0  0  0  0  0  0  0  0  0  0  0  0
    3.8288  -49.8865  -20.9302 H   0  0  0  0  0  0  0  0  0  0  0  0
    2.0742  -50.9341  -21.4705 C   0  0  0  0  0  0  0  0  0  0  0  0
    1.6907  -51.2960  -20.2520 N   0  0  0  0  0  0  0  0  0  0  0  0
    0.6081  -52.0217  -19.9943 C   0  0  0  0  0  0  0  0  0  0  0  0
   -0.1635  -52.4221  -21.0670 C   0  0  0  0  0  0  0  0  0  0  0  0
   -1.5877  -53.3716  -20.7793 Cl  0  0  0  0  0  0  0  0  0  0  0  0
    0.1815  -52.0746  -22.3975 C   0  0  0  0  0  0  0  0  0  0  0  0
    1.2806  -51.3532  -22.4906 N   0  0  0  0  0  0  0  0  0  0  0  0
   -0.6682  -52.5295  -23.4206 N   0  0  0  0  0  0  0  0  0  0  0  0
   -1.4691  -51.8739  -23.6926 H   0  0  0  0  0  0  0  0  0  0  0  0
   -0.5579  -53.7743  -24.0862 C   0  0  0  0  0  0  0  0  0  0  0  0
   -0.9715  -54.9662  -23.5424 C   0  0  0  0  0  0  0  0  0  0  0  0
   -0.8819  -56.1666  -24.2545 C   0  0  0  0  0  0  0  0  0  0  0  0
   -0.3669  -56.1276  -25.5225 C   0  0  0  0  0  0  0  0  0  0  0  0
    0.0493  -54.9427  -26.0749 C   0  0  0  0  0  0  0  0  0  0  0  0
   -0.0277  -53.7303  -25.3871 C   0  0  0  0  0  0  0  0  0  0  0  0
    0.5217  -52.2557  -26.0815 S   0  0  0  0  0  0  0  0  0  0  0  0
    0.2450  -52.3620  -27.5946 O   0  0  0  0  0  0  0  0  0  0  0  0
   -0.2675  -51.0435  -25.6623 O   0  0  0  0  0  0  0  0  0  0  0  0
    2.2361  -51.9350  -25.9360 C   0  0  0  0  0  0  0  0  0  0  0  0
    2.9195  -52.8972  -24.9741 C   0  0  0  0  0  0  0  0  0  0  0  0
    2.8576  -52.2586  -27.3092 C   0  0  0  0  0  0  0  0  0  0  0  0
 23 24  1  0  0  0
 24  1  1  0  0  0
  1  2  2  0  0  0
  2  3  1  0  0  0
  3  4  2  0  0  0
  4  5  1  0  0  0
  5  6  2  0  0  0
  6 25  1  0  0  0
 25 27  1  0  0  0
 27 28  2  0  0  0
 28 29  1  0  0  0
 29 30  2  0  0  0
 30 31  1  0  0  0
 30 32  1  0  0  0
 32 34  1  0  0  0
 34 36  1  0  0  0
 36 37  2  0  0  0
 37 38  1  0  0  0
 38 39  2  0  0  0
 39 40  1  0  0  0
 40 41  2  0  0  0
 41 42  1  0  0  0
 42 43  2  0  0  0
 42 44  2  0  0  0
 42 45  1  0  0  0
 45 46  1  0  0  0
 45 47  1  0  0  0
 32 33  2  0  0  0
  3  7  1  0  0  0
  7  8  1  0  0  0
  8  9  1  0  0  0
  9 10  1  0  0  0
 10 11  1  0  0  0
 11 12  1  0  0  0
 10 13  1  0  0  0
 13 14  1  0  0  0
 14 15  1  0  0  0
 15 16  1  0  0  0
 16 17  1  0  0  0
 17 18  1  0  0  0
 16 19  1  0  0  0
 19 20  2  0  0  0
 19 21  1  0  0  0
 21 22  2  0  0  0
  6  1  1  0  0  0
 33 27  1  0  0  0
 12  7  1  0  0  0
 18 13  1  0  0  0
 41 36  1  0  0  0
 25 26  1  0  0  0
 34 35  1  0  0  0
M  END
> <minimizedAffinity>
-8.06063

> <CNNscore>
0.0517606772

> <CNNaffinity>
6.6974525452

> <CNN_VS>
0.3466646671

> <CNNaffinity_variance>
0.8915346861

$$$$
[H]C([H])=C([H])C(=O)N1C([H])([H])C([H])([H])N(C2([H])C([H])([H])C([H])([H])N(c3c([H])c([H])c(N([H])c4nc([H])c(Cl)c(N([H])c5c([H])c([H])c([H])c([H])c5S(=O)(=O)C([H])(C([H])([H])[H])C([H])([H])[H])n4)c(OC([H])([H])[H])c3[H])C([H])([H])C2([H])[H])C([H])([H])C1([H])[H]


 47 51  0  0  0  0  0  0  0  0999 V2000
    3.5319  -50.7443  -19.1004 C   0  0  0  0  0  0  0  0  0  0  0  0
    3.2478  -49.9794  -18.0074 C   0  0  0  0  0  0  0  0  0  0  0  0
    3.8891  -48.7721  -17.7629 C   0  0  0  0  0  0  0  0  0  0  0  0
    4.8225  -48.4002  -18.6871 C   0  0  0  0  0  0  0  0  0  0  0  0
    5.1251  -49.1780  -19.8176 C   0  0  0  0  0  0  0  0  0  0  0  0
    4.4861  -50.3564  -20.0394 C   0  0  0  0  0  0  0  0  0  0  0  0
    3.6211  -47.9549  -16.6468 N   0  0  0  0  0  0  0  0  0  0  0  0
    3.2448  -48.6187  -15.4260 C   0  0  0  0  0  0  0  0  0  0  0  0
    3.3754  -47.8257  -14.1807 C   0  0  0  0  0  0  0  0  0  0  0  0
    3.4499  -46.3422  -14.3463 C   0  0  0  0  0  0  0  0  0  0  0  0
    2.8303  -45.9425  -15.6432 C   0  0  0  0  0  0  0  0  0  0  0  0
    3.7213  -46.5242  -16.7544 C   0  0  0  0  0  0  0  0  0  0  0  0
    2.8250  -45.6387  -13.2099 N   0  0  0  0  0  0  0  0  0  0  0  0
    2.8021  -44.2647  -13.5302 C   0  0  0  0  0  0  0  0  0  0  0  0
    1.6809  -43.4622  -12.9548 C   0  0  0  0  0  0  0  0  0  0  0  0
    0.4762  -44.2151  -12.7482 N   0  0  0  0  0  0  0  0  0  0  0  0
    0.6248  -45.4783  -12.1028 C   0  0  0  0  0  0  0  0  0  0  0  0
    1.5925  -46.2779  -12.9558 C   0  0  0  0  0  0  0  0  0  0  0  0
   -0.7639  -43.7248  -13.1608 C   0  0  0  0  0  0  0  0  0  0  0  0
   -0.8780  -42.5814  -13.7442 O   0  0  0  0  0  0  0  0  0  0  0  0
   -2.0196  -44.4410  -12.9752 C   0  0  0  0  0  0  0  0  0  0  0  0
   -2.8673  -44.1162  -12.0129 C   0  0  0  0  0  0  0  0  0  0  0  0
    1.4517  -51.9960  -19.2254 C   0  0  0  0  0  0  0  0  0  0  0  0
    2.8622  -51.9286  -19.2843 O   0  0  0  0  0  0  0  0  0  0  0  0
    4.7159  -51.1937  -21.1324 N   0  0  0  0  0  0  0  0  0  0  0  0
    5.3076  -52.0776  -20.9428 H   0  0  0  0  0  0  0  0  0  0  0  0
    4.2727  -51.0303  -22.4594 C   0  0  0  0  0  0  0  0  0  0  0  0
    4.9769  -50.4892  -23.4464 N   0  0  0  0  0  0  0  0  0  0  0  0
    4.5284  -50.3367  -24.6877 C   0  0  0  0  0  0  0  0  0  0  0  0
    3.2468  -50.7710  -24.9623 C   0  0  0  0  0  0  0  0  0  0  0  0
    2.6177  -50.5930  -26.5702 Cl  0  0  0  0  0  0  0  0  0  0  0  0
    2.4340  -51.3591  -23.9606 C   0  0  0  0  0  0  0  0  0  0  0  0
    3.0186  -51.4414  -22.7822 N   0  0  0  0  0  0  0  0  0  0  0  0
    1.1442  -51.7696  -24.3396 N   0  0  0  0  0  0  0  0  0  0  0  0
    0.7187  -51.2644  -25.1815 H   0  0  0  0  0  0  0  0  0  0  0  0
    0.3751  -52.7643  -23.6886 C   0  0  0  0  0  0  0  0  0  0  0  0
    0.0487  -52.7208  -22.3548 C   0  0  0  0  0  0  0  0  0  0  0  0
   -0.7500  -53.7050  -21.7636 C   0  0  0  0  0  0  0  0  0  0  0  0
   -1.2063  -54.7260  -22.5535 C   0  0  0  0  0  0  0  0  0  0  0  0
   -0.8859  -54.7791  -23.8866 C   0  0  0  0  0  0  0  0  0  0  0  0
   -0.0904  -53.8113  -24.5025 C   0  0  0  0  0  0  0  0  0  0  0  0
    0.3254  -53.9037  -26.1691 S   0  0  0  0  0  0  0  0  0  0  0  0
    1.8640  -53.8292  -26.2345 O   0  0  0  0  0  0  0  0  0  0  0  0
    0.0080  -55.2277  -26.8126 O   0  0  0  0  0  0  0  0  0  0  0  0
   -0.2544  -52.5938  -27.1746 C   0  0  0  0  0  0  0  0  0  0  0  0
   -0.4409  -53.0229  -28.6234 C   0  0  0  0  0  0  0  0  0  0  0  0
   -1.6789  -52.2664  -26.6845 C   0  0  0  0  0  0  0  0  0  0  0  0
 23 24  1  0  0  0
 24  1  1  0  0  0
  1  2  2  0  0  0
  2  3  1  0  0  0
  3  4  2  0  0  0
  4  5  1  0  0  0
  5  6  2  0  0  0
  6 25  1  0  0  0
 25 27  1  0  0  0
 27 28  2  0  0  0
 28 29  1  0  0  0
 29 30  2  0  0  0
 30 31  1  0  0  0
 30 32  1  0  0  0
 32 34  1  0  0  0
 34 36  1  0  0  0
 36 37  2  0  0  0
 37 38  1  0  0  0
 38 39  2  0  0  0
 39 40  1  0  0  0
 40 41  2  0  0  0
 41 42  1  0  0  0
 42 43  2  0  0  0
 42 44  2  0  0  0
 42 45  1  0  0  0
 45 46  1  0  0  0
 45 47  1  0  0  0
 32 33  2  0  0  0
  3  7  1  0  0  0
  7  8  1  0  0  0
  8  9  1  0  0  0
  9 10  1  0  0  0
 10 11  1  0  0  0
 11 12  1  0  0  0
 10 13  1  0  0  0
 13 14  1  0  0  0
 14 15  1  0  0  0
 15 16  1  0  0  0
 16 17  1  0  0  0
 17 18  1  0  0  0
 16 19  1  0  0  0
 19 20  2  0  0  0
 19 21  1  0  0  0
 21 22  2  0  0  0
  6  1  1  0  0  0
 33 27  1  0  0  0
 12  7  1  0  0  0
 18 13  1  0  0  0
 41 36  1  0  0  0
 25 26  1  0  0  0
 34 35  1  0  0  0
M  END
> <minimizedAffinity>
-7.60313

> <CNNscore>
0.0505633317

> <CNNaffinity>
6.4743471146

> <CNN_VS>
0.3273645639

> <CNNaffinity_variance>
0.1245467216

$$$$
[H]C([H])=C([H])C(=O)N1C([H])([H])C([H])([H])N(C2([H])C([H])([H])C([H])([H])N(c3c([H])c([H])c(N([H])c4nc([H])c(Cl)c(N([H])c5c([H])c([H])c([H])c([H])c5S(=O)(=O)C([H])(C([H])([H])[H])C([H])([H])[H])n4)c(OC([H])([H])[H])c3[H])C([H])([H])C2([H])[H])C([H])([H])C1([H])[H]


 47 51  0  0  0  0  0  0  0  0999 V2000
    3.3278  -49.1335  -20.7972 C   0  0  0  0  0  0  0  0  0  0  0  0
    3.5096  -48.3285  -21.8833 C   0  0  0  0  0  0  0  0  0  0  0  0
    3.1449  -48.7217  -23.1642 C   0  0  0  0  0  0  0  0  0  0  0  0
    2.5929  -49.9661  -23.2667 C   0  0  0  0  0  0  0  0  0  0  0  0
    2.3996  -50.8058  -22.1566 C   0  0  0  0  0  0  0  0  0  0  0  0
    2.7627  -50.4025  -20.9109 C   0  0  0  0  0  0  0  0  0  0  0  0
    3.3156  -47.9175  -24.3086 N   0  0  0  0  0  0  0  0  0  0  0  0
    3.4441  -48.5966  -25.5715 C   0  0  0  0  0  0  0  0  0  0  0  0
    3.2007  -47.7793  -26.7838 C   0  0  0  0  0  0  0  0  0  0  0  0
    3.2854  -46.2974  -26.6101 C   0  0  0  0  0  0  0  0  0  0  0  0
    4.1251  -45.9709  -25.4211 C   0  0  0  0  0  0  0  0  0  0  0  0
    3.3614  -46.4850  -24.1884 C   0  0  0  0  0  0  0  0  0  0  0  0
    3.7941  -45.6379  -27.8279 N   0  0  0  0  0  0  0  0  0  0  0  0
    4.9131  -46.3768  -28.2671 C   0  0  0  0  0  0  0  0  0  0  0  0
    5.1742  -46.3846  -29.7382 C   0  0  0  0  0  0  0  0  0  0  0  0
    3.9891  -46.2517  -30.5374 N   0  0  0  0  0  0  0  0  0  0  0  0
    3.0820  -45.2200  -30.1539 C   0  0  0  0  0  0  0  0  0  0  0  0
    2.7023  -45.5049  -28.7123 C   0  0  0  0  0  0  0  0  0  0  0  0
    3.7521  -47.0924  -31.6263 C   0  0  0  0  0  0  0  0  0  0  0  0
    4.5829  -48.0205  -31.9565 O   0  0  0  0  0  0  0  0  0  0  0  0
    2.5708  -47.0031  -32.4753 C   0  0  0  0  0  0  0  0  0  0  0  0
    2.6164  -46.4351  -33.6692 C   0  0  0  0  0  0  0  0  0  0  0  0
    3.0951  -47.5644  -18.9550 C   0  0  0  0  0  0  0  0  0  0  0  0
    3.7103  -48.6855  -19.5571 O   0  0  0  0  0  0  0  0  0  0  0  0
    2.6075  -51.1630  -19.7507 N   0  0  0  0  0  0  0  0  0  0  0  0
    3.5109  -51.3948  -19.2054 H   0  0  0  0  0  0  0  0  0  0  0  0
    1.4153  -51.6707  -19.1985 C   0  0  0  0  0  0  0  0  0  0  0  0
    0.6829  -52.6508  -19.7141 N   0  0  0  0  0  0  0  0  0  0  0  0
   -0.4455  -53.1020  -19.1771 C   0  0  0  0  0  0  0  0  0  0  0  0
   -0.8789  -52.5093  -18.0078 C   0  0  0  0  0  0  0  0  0  0  0  0
   -2.3477  -53.0657  -17.2691 Cl  0  0  0  0  0  0  0  0  0  0  0  0
   -0.1508  -51.4571  -17.3973 C   0  0  0  0  0  0  0  0  0  0  0  0
    0.9453  -51.1218  -18.0479 N   0  0  0  0  0  0  0  0  0  0  0  0
   -0.6741  -50.9198  -16.2085 N   0  0  0  0  0  0  0  0  0  0  0  0
   -1.4306  -50.1719  -16.3239 H   0  0  0  0  0  0  0  0  0  0  0  0
   -0.2653  -51.2715  -14.8993 C   0  0  0  0  0  0  0  0  0  0  0  0
    0.7260  -52.1844  -14.6320 C   0  0  0  0  0  0  0  0  0  0  0  0
    1.1260  -52.4690  -13.3224 C   0  0  0  0  0  0  0  0  0  0  0  0
    0.5005  -51.8090  -12.2989 C   0  0  0  0  0  0  0  0  0  0  0  0
   -0.4909  -50.8957  -12.5548 C   0  0  0  0  0  0  0  0  0  0  0  0
   -0.9106  -50.5927  -13.8513 C   0  0  0  0  0  0  0  0  0  0  0  0
   -2.1727  -49.4647  -14.1571 S   0  0  0  0  0  0  0  0  0  0  0  0
   -2.0151  -48.3462  -13.1077 O   0  0  0  0  0  0  0  0  0  0  0  0
   -2.0470  -48.7378  -15.4700 O   0  0  0  0  0  0  0  0  0  0  0  0
   -3.8028  -50.0707  -13.9607 C   0  0  0  0  0  0  0  0  0  0  0  0
   -4.7733  -49.4348  -14.9464 C   0  0  0  0  0  0  0  0  0  0  0  0
   -3.7657  -51.5583  -14.3637 C   0  0  0  0  0  0  0  0  0  0  0  0
 23 24  1  0  0  0
 24  1  1  0  0  0
  1  2  2  0  0  0
  2  3  1  0  0  0
  3  4  2  0  0  0
  4  5  1  0  0  0
  5  6  2  0  0  0
  6 25  1  0  0  0
 25 27  1  0  0  0
 27 28  2  0  0  0
 28 29  1  0  0  0
 29 30  2  0  0  0
 30 31  1  0  0  0
 30 32  1  0  0  0
 32 34  1  0  0  0
 34 36  1  0  0  0
 36 37  2  0  0  0
 37 38  1  0  0  0
 38 39  2  0  0  0
 39 40  1  0  0  0
 40 41  2  0  0  0
 41 42  1  0  0  0
 42 43  2  0  0  0
 42 44  2  0  0  0
 42 45  1  0  0  0
 45 46  1  0  0  0
 45 47  1  0  0  0
 32 33  2  0  0  0
  3  7  1  0  0  0
  7  8  1  0  0  0
  8  9  1  0  0  0
  9 10  1  0  0  0
 10 11  1  0  0  0
 11 12  1  0  0  0
 10 13  1  0  0  0
 13 14  1  0  0  0
 14 15  1  0  0  0
 15 16  1  0  0  0
 16 17  1  0  0  0
 17 18  1  0  0  0
 16 19  1  0  0  0
 19 20  2  0  0  0
 19 21  1  0  0  0
 21 22  2  0  0  0
  6  1  1  0  0  0
 33 27  1  0  0  0
 12  7  1  0  0  0
 18 13  1  0  0  0
 41 36  1  0  0  0
 25 26  1  0  0  0
 34 35  1  0  0  0
M  END
> <minimizedAffinity>
-7.22922

> <CNNscore>
0.0463264324

> <CNNaffinity>
6.1600313187

> <CNN_VS>
0.2853722870

> <CNNaffinity_variance>
0.1796945333

$$$$
[H]C([H])=C([H])C(=O)N1C([H])([H])C([H])([H])N(c2c([H])c([H])c(N([H])c3nc([H])c(Cl)c(N([H])c4c([H])c([H])c([H])c([H])c4S(=O)(=O)C([H])(C([H])([H])[H])C([H])([H])[H])n3)c(OC([H])([H])[H])c2[H])C([H])([H])C1([H])[H]


 41 44  0  0  0  0  0  0  0  0999 V2000
   -0.6258  -53.5418  -20.4437 C   0  0  0  0  0  0  0  0  0  0  0  0
   -1.2780  -54.5308  -21.1421 N   0  0  0  0  0  0  0  0  0  0  0  0
   -1.2099  -54.6325  -22.4679 C   0  0  0  0  0  0  0  0  0  0  0  0
   -0.4795  -53.7471  -23.2138 C   0  0  0  0  0  0  0  0  0  0  0  0
   -0.3938  -53.8854  -24.9652 Cl  0  0  0  0  0  0  0  0  0  0  0  0
    0.1993  -52.7211  -22.5299 C   0  0  0  0  0  0  0  0  0  0  0  0
    0.0702  -52.7030  -21.1947 N   0  0  0  0  0  0  0  0  0  0  0  0
   -0.7687  -53.4798  -19.0407 N   0  0  0  0  0  0  0  0  0  0  0  0
   -1.0069  -54.4630  -18.6031 H   0  0  0  0  0  0  0  0  0  0  0  0
   -1.6099  -52.3153  -17.1416 C   0  0  0  0  0  0  0  0  0  0  0  0
   -1.5528  -51.2993  -16.2100 C   0  0  0  0  0  0  0  0  0  0  0  0
   -0.5580  -50.3470  -16.2391 C   0  0  0  0  0  0  0  0  0  0  0  0
    0.3888  -50.4262  -17.2258 C   0  0  0  0  0  0  0  0  0  0  0  0
    0.3087  -51.4684  -18.1606 C   0  0  0  0  0  0  0  0  0  0  0  0
   -0.6549  -52.4180  -18.1595 C   0  0  0  0  0  0  0  0  0  0  0  0
   -0.5608  -49.3464  -15.2470 N   0  0  0  0  0  0  0  0  0  0  0  0
    0.7208  -48.7988  -14.7787 C   0  0  0  0  0  0  0  0  0  0  0  0
    0.4508  -47.7047  -13.7654 C   0  0  0  0  0  0  0  0  0  0  0  0
   -0.5441  -46.7424  -14.2880 N   0  0  0  0  0  0  0  0  0  0  0  0
   -1.7668  -47.3165  -14.7884 C   0  0  0  0  0  0  0  0  0  0  0  0
   -1.7620  -48.8448  -14.6689 C   0  0  0  0  0  0  0  0  0  0  0  0
   -0.2639  -45.3685  -14.2678 C   0  0  0  0  0  0  0  0  0  0  0  0
    0.9023  -45.0780  -13.7693 O   0  0  0  0  0  0  0  0  0  0  0  0
   -1.0626  -44.2978  -14.7054 C   0  0  0  0  0  0  0  0  0  0  0  0
   -1.3577  -43.8590  -15.8892 C   0  0  0  0  0  0  0  0  0  0  0  0
   -3.8574  -52.9013  -16.4006 C   0  0  0  0  0  0  0  0  0  0  0  0
   -2.6448  -53.2180  -17.0244 O   0  0  0  0  0  0  0  0  0  0  0  0
    0.9696  -51.8576  -23.3275 N   0  0  0  0  0  0  0  0  0  0  0  0
    0.4487  -51.0045  -23.7362 H   0  0  0  0  0  0  0  0  0  0  0  0
    2.3297  -51.9139  -23.6797 C   0  0  0  0  0  0  0  0  0  0  0  0
    2.8412  -52.7712  -24.6295 C   0  0  0  0  0  0  0  0  0  0  0  0
    4.1927  -52.7986  -24.8900 C   0  0  0  0  0  0  0  0  0  0  0  0
    5.0597  -51.9757  -24.2104 C   0  0  0  0  0  0  0  0  0  0  0  0
    4.5312  -51.1226  -23.2580 C   0  0  0  0  0  0  0  0  0  0  0  0
    3.1996  -51.0623  -22.9688 C   0  0  0  0  0  0  0  0  0  0  0  0
    2.6118  -49.9809  -21.7256 S   0  0  0  0  0  0  0  0  0  0  0  0
    2.7042  -50.6110  -20.3664 O   0  0  0  0  0  0  0  0  0  0  0  0
    1.2326  -49.4677  -22.0176 O   0  0  0  0  0  0  0  0  0  0  0  0
    3.7174  -48.5823  -21.6472 C   0  0  0  0  0  0  0  0  0  0  0  0
    3.5221  -47.8770  -20.2927 C   0  0  0  0  0  0  0  0  0  0  0  0
    3.5267  -47.6062  -22.7553 C   0  0  0  0  0  0  0  0  0  0  0  0
 26 27  1  0  0  0
 27 10  1  0  0  0
 10 11  2  0  0  0
 11 12  1  0  0  0
 12 13  2  0  0  0
 13 14  1  0  0  0
 14 15  2  0  0  0
 15  8  1  0  0  0
  8  1  1  0  0  0
  1  2  2  0  0  0
  2  3  1  0  0  0
  3  4  2  0  0  0
  4  5  1  0  0  0
  4  6  1  0  0  0
  6 28  1  0  0  0
 28 30  1  0  0  0
 30 31  2  0  0  0
 31 32  1  0  0  0
 32 33  2  0  0  0
 33 34  1  0  0  0
 34 35  2  0  0  0
 35 36  1  0  0  0
 36 37  2  0  0  0
 36 38  2  0  0  0
 36 39  1  0  0  0
 39 40  1  0  0  0
 39 41  1  0  0  0
  6  7  2  0  0  0
 12 16  1  0  0  0
 16 17  1  0  0  0
 17 18  1  0  0  0
 18 19  1  0  0  0
 19 20  1  0  0  0
 20 21  1  0  0  0
 19 22  1  0  0  0
 22 23  2  0  0  0
 22 24  1  0  0  0
 24 25  2  0  0  0
 15 10  1  0  0  0
  7  1  1  0  0  0
 21 16  1  0  0  0
 35 30  1  0  0  0
  8  9  1  0  0  0
 28 29  1  0  0  0
M  END
> <minimizedAffinity>
-7.53623

> <CNNscore>
0.7774291635

> <CNNaffinity>
7.6832780838

> <CNN_VS>
5.9732046127

> <CNNaffinity_variance>
0.0429504216

$$$$
[H]C([H])=C([H])C(=O)N1C([H])([H])C([H])([H])N(c2c([H])c([H])c(N([H])c3nc([H])c(Cl)c(N([H])c4c([H])c([H])c([H])c([H])c4S(=O)(=O)C([H])(C([H])([H])[H])C([H])([H])[H])n3)c(OC([H])([H])[H])c2[H])C([H])([H])C1([H])[H]


 41 44  0  0  0  0  0  0  0  0999 V2000
   -0.7566  -53.8002  -20.9262 C   0  0  0  0  0  0  0  0  0  0  0  0
   -1.5854  -54.7403  -21.4923 N   0  0  0  0  0  0  0  0  0  0  0  0
   -1.5030  -55.0848  -22.7758 C   0  0  0  0  0  0  0  0  0  0  0  0
   -0.5789  -54.5138  -23.6088 C   0  0  0  0  0  0  0  0  0  0  0  0
   -0.4749  -54.9719  -25.3039 Cl  0  0  0  0  0  0  0  0  0  0  0  0
    0.2842  -53.5461  -23.0613 C   0  0  0  0  0  0  0  0  0  0  0  0
    0.1240  -53.2679  -21.7588 N   0  0  0  0  0  0  0  0  0  0  0  0
   -0.9228  -53.4648  -19.5651 N   0  0  0  0  0  0  0  0  0  0  0  0
   -1.6065  -54.1569  -19.0469 H   0  0  0  0  0  0  0  0  0  0  0  0
   -0.9395  -52.2016  -17.5467 C   0  0  0  0  0  0  0  0  0  0  0  0
   -0.4384  -51.2177  -16.7194 C   0  0  0  0  0  0  0  0  0  0  0  0
    0.6324  -50.4358  -17.0925 C   0  0  0  0  0  0  0  0  0  0  0  0
    1.2003  -50.6543  -18.3198 C   0  0  0  0  0  0  0  0  0  0  0  0
    0.6726  -51.6603  -19.1419 C   0  0  0  0  0  0  0  0  0  0  0  0
   -0.3772  -52.4443  -18.8051 C   0  0  0  0  0  0  0  0  0  0  0  0
    1.0938  -49.4582  -16.1887 N   0  0  0  0  0  0  0  0  0  0  0  0
    2.1130  -48.4963  -16.6331 C   0  0  0  0  0  0  0  0  0  0  0  0
    2.3950  -47.5194  -15.5093 C   0  0  0  0  0  0  0  0  0  0  0  0
    1.1336  -46.9657  -14.9694 N   0  0  0  0  0  0  0  0  0  0  0  0
    0.1356  -47.9341  -14.5937 C   0  0  0  0  0  0  0  0  0  0  0  0
    0.6162  -49.3670  -14.8500 C   0  0  0  0  0  0  0  0  0  0  0  0
    0.9760  -45.5775  -14.8482 C   0  0  0  0  0  0  0  0  0  0  0  0
    2.0090  -44.8952  -15.2485 O   0  0  0  0  0  0  0  0  0  0  0  0
   -0.1259  -44.8529  -14.3619 C   0  0  0  0  0  0  0  0  0  0  0  0
   -1.2305  -44.4685  -14.9216 C   0  0  0  0  0  0  0  0  0  0  0  0
   -3.0810  -52.3429  -16.3902 C   0  0  0  0  0  0  0  0  0  0  0  0
   -2.0128  -52.9292  -17.0794 O   0  0  0  0  0  0  0  0  0  0  0  0
    1.2440  -53.0135  -23.9390 N   0  0  0  0  0  0  0  0  0  0  0  0
    1.5961  -53.6802  -24.7121 H   0  0  0  0  0  0  0  0  0  0  0  0
    1.8244  -51.7336  -23.9860 C   0  0  0  0  0  0  0  0  0  0  0  0
    1.9999  -50.9300  -22.8806 C   0  0  0  0  0  0  0  0  0  0  0  0
    2.5375  -49.6694  -23.0118 C   0  0  0  0  0  0  0  0  0  0  0  0
    2.9089  -49.1850  -24.2440 C   0  0  0  0  0  0  0  0  0  0  0  0
    2.7239  -50.0028  -25.3446 C   0  0  0  0  0  0  0  0  0  0  0  0
    2.1960  -51.2576  -25.2598 C   0  0  0  0  0  0  0  0  0  0  0  0
    1.9613  -52.2185  -26.7028 S   0  0  0  0  0  0  0  0  0  0  0  0
    1.9483  -53.6854  -26.3850 O   0  0  0  0  0  0  0  0  0  0  0  0
    2.9484  -51.8831  -27.7816 O   0  0  0  0  0  0  0  0  0  0  0  0
    0.3238  -51.8808  -27.3267 C   0  0  0  0  0  0  0  0  0  0  0  0
   -0.6160  -51.6355  -26.1322 C   0  0  0  0  0  0  0  0  0  0  0  0
   -0.2251  -52.9670  -28.1845 C   0  0  0  0  0  0  0  0  0  0  0  0
 26 27  1  0  0  0
 27 10  1  0  0  0
 10 11  2  0  0  0
 11 12  1  0  0  0
 12 13  2  0  0  0
 13 14  1  0  0  0
 14 15  2  0  0  0
 15  8  1  0  0  0
  8  1  1  0  0  0
  1  2  2  0  0  0
  2  3  1  0  0  0
  3  4  2  0  0  0
  4  5  1  0  0  0
  4  6  1  0  0  0
  6 28  1  0  0  0
 28 30  1  0  0  0
 30 31  2  0  0  0
 31 32  1  0  0  0
 32 33  2  0  0  0
 33 34  1  0  0  0
 34 35  2  0  0  0
 35 36  1  0  0  0
 36 37  2  0  0  0
 36 38  2  0  0  0
 36 39  1  0  0  0
 39 40  1  0  0  0
 39 41  1  0  0  0
  6  7  2  0  0  0
 12 16  1  0  0  0
 16 17  1  0  0  0
 17 18  1  0  0  0
 18 19  1  0  0  0
 19 20  1  0  0  0
 20 21  1  0  0  0
 19 22  1  0  0  0
 22 23  2  0  0  0
 22 24  1  0  0  0
 24 25  2  0  0  0
 15 10  1  0  0  0
  7  1  1  0  0  0
 21 16  1  0  0  0
 35 30  1  0  0  0
  8  9  1  0  0  0
 28 29  1  0  0  0
M  END
> <minimizedAffinity>
-8.12225

> <CNNscore>
0.7468617558

> <CNNaffinity>
7.7451658249

> <CNN_VS>
5.7845683098

> <CNNaffinity_variance>
0.0523561835

$$$$
[H]C([H])=C([H])C(=O)N1C([H])([H])C([H])([H])N(c2c([H])c([H])c(N([H])c3nc([H])c(Cl)c(N([H])c4c([H])c([H])c([H])c([H])c4S(=O)(=O)C([H])(C([H])([H])[H])C([H])([H])[H])n3)c(OC([H])([H])[H])c2[H])C([H])([H])C1([H])[H]


 41 44  0  0  0  0  0  0  0  0999 V2000
   -0.7247  -53.3959  -19.8893 C   0  0  0  0  0  0  0  0  0  0  0  0
   -1.3956  -54.3143  -20.6625 N   0  0  0  0  0  0  0  0  0  0  0  0
   -1.2166  -54.4064  -21.9786 C   0  0  0  0  0  0  0  0  0  0  0  0
   -0.3460  -53.5817  -22.6387 C   0  0  0  0  0  0  0  0  0  0  0  0
   -0.1140  -53.7070  -24.3778 Cl  0  0  0  0  0  0  0  0  0  0  0  0
    0.3558  -52.6287  -21.8769 C   0  0  0  0  0  0  0  0  0  0  0  0
    0.1081  -52.6144  -20.5586 N   0  0  0  0  0  0  0  0  0  0  0  0
   -0.9885  -53.3373  -18.5038 N   0  0  0  0  0  0  0  0  0  0  0  0
   -1.2703  -54.3202  -18.0923 H   0  0  0  0  0  0  0  0  0  0  0  0
   -2.0199  -52.1311  -16.7287 C   0  0  0  0  0  0  0  0  0  0  0  0
   -2.0408  -51.1160  -15.7945 C   0  0  0  0  0  0  0  0  0  0  0  0
   -1.0095  -50.2091  -15.6893 C   0  0  0  0  0  0  0  0  0  0  0  0
    0.0546  -50.3332  -16.5429 C   0  0  0  0  0  0  0  0  0  0  0  0
    0.0521  -51.3735  -17.4833 C   0  0  0  0  0  0  0  0  0  0  0  0
   -0.9446  -52.2792  -17.6120 C   0  0  0  0  0  0  0  0  0  0  0  0
   -1.0984  -49.2065  -14.7032 N   0  0  0  0  0  0  0  0  0  0  0  0
    0.1196  -48.7921  -13.9916 C   0  0  0  0  0  0  0  0  0  0  0  0
   -0.2245  -47.6686  -13.0345 C   0  0  0  0  0  0  0  0  0  0  0  0
   -0.9960  -46.6116  -13.7251 N   0  0  0  0  0  0  0  0  0  0  0  0
   -2.1530  -47.0589  -14.4572 C   0  0  0  0  0  0  0  0  0  0  0  0
   -2.3295  -48.5785  -14.3588 C   0  0  0  0  0  0  0  0  0  0  0  0
   -0.5841  -45.2743  -13.6340 C   0  0  0  0  0  0  0  0  0  0  0  0
    0.4890  -45.1032  -12.9182 O   0  0  0  0  0  0  0  0  0  0  0  0
   -1.1690  -44.1294  -14.2022 C   0  0  0  0  0  0  0  0  0  0  0  0
   -1.5740  -43.8647  -15.4051 C   0  0  0  0  0  0  0  0  0  0  0  0
   -4.1920  -52.8490  -15.8860 C   0  0  0  0  0  0  0  0  0  0  0  0
   -3.1005  -52.9865  -16.7516 O   0  0  0  0  0  0  0  0  0  0  0  0
    1.2688  -51.8288  -22.5854 N   0  0  0  0  0  0  0  0  0  0  0  0
    1.7226  -52.2870  -23.4515 H   0  0  0  0  0  0  0  0  0  0  0  0
    1.6891  -50.5064  -22.3574 C   0  0  0  0  0  0  0  0  0  0  0  0
    1.0347  -49.6268  -21.5227 C   0  0  0  0  0  0  0  0  0  0  0  0
    1.4825  -48.3325  -21.3828 C   0  0  0  0  0  0  0  0  0  0  0  0
    2.5877  -47.8895  -22.0708 C   0  0  0  0  0  0  0  0  0  0  0  0
    3.2322  -48.7838  -22.9068 C   0  0  0  0  0  0  0  0  0  0  0  0
    2.8233  -50.0742  -23.0744 C   0  0  0  0  0  0  0  0  0  0  0  0
    3.6711  -51.1354  -24.1769 S   0  0  0  0  0  0  0  0  0  0  0  0
    3.6069  -52.5630  -23.7175 O   0  0  0  0  0  0  0  0  0  0  0  0
    5.0798  -50.6877  -24.4339 O   0  0  0  0  0  0  0  0  0  0  0  0
    2.7949  -51.1251  -25.7314 C   0  0  0  0  0  0  0  0  0  0  0  0
    2.9620  -52.5024  -26.3986 C   0  0  0  0  0  0  0  0  0  0  0  0
    3.2449  -50.0556  -26.6646 C   0  0  0  0  0  0  0  0  0  0  0  0
 26 27  1  0  0  0
 27 10  1  0  0  0
 10 11  2  0  0  0
 11 12  1  0  0  0
 12 13  2  0  0  0
 13 14  1  0  0  0
 14 15  2  0  0  0
 15  8  1  0  0  0
  8  1  1  0  0  0
  1  2  2  0  0  0
  2  3  1  0  0  0
  3  4  2  0  0  0
  4  5  1  0  0  0
  4  6  1  0  0  0
  6 28  1  0  0  0
 28 30  1  0  0  0
 30 31  2  0  0  0
 31 32  1  0  0  0
 32 33  2  0  0  0
 33 34  1  0  0  0
 34 35  2  0  0  0
 35 36  1  0  0  0
 36 37  2  0  0  0
 36 38  2  0  0  0
 36 39  1  0  0  0
 39 40  1  0  0  0
 39 41  1  0  0  0
  6  7  2  0  0  0
 12 16  1  0  0  0
 16 17  1  0  0  0
 17 18  1  0  0  0
 18 19  1  0  0  0
 19 20  1  0  0  0
 20 21  1  0  0  0
 19 22  1  0  0  0
 22 23  2  0  0  0
 22 24  1  0  0  0
 24 25  2  0  0  0
 15 10  1  0  0  0
  7  1  1  0  0  0
 21 16  1  0  0  0
 35 30  1  0  0  0
  8  9  1  0  0  0
 28 29  1  0  0  0
M  END
> <minimizedAffinity>
-7.72314

> <CNNscore>
0.5729308128

> <CNNaffinity>
7.3941116333

> <CNN_VS>
4.2363142967

> <CNNaffinity_variance>
0.0711245686

$$$$
[H]C([H])=C([H])C(=O)N1C([H])([H])C([H])([H])N(c2c([H])c([H])c(N([H])c3nc([H])c(Cl)c(N([H])c4c([H])c([H])c([H])c([H])c4S(=O)(=O)C([H])(C([H])([H])[H])C([H])([H])[H])n3)c(OC([H])([H])[H])c2[H])C([H])([H])C1([H])[H]


 41 44  0  0  0  0  0  0  0  0999 V2000
   -0.5309  -53.5877  -20.7995 C   0  0  0  0  0  0  0  0  0  0  0  0
   -1.4661  -54.3055  -21.5078 N   0  0  0  0  0  0  0  0  0  0  0  0
   -1.3379  -54.5567  -22.8090 C   0  0  0  0  0  0  0  0  0  0  0  0
   -0.2565  -54.1079  -23.5182 C   0  0  0  0  0  0  0  0  0  0  0  0
   -0.0924  -54.4420  -25.2373 Cl  0  0  0  0  0  0  0  0  0  0  0  0
    0.7189  -53.3683  -22.8234 C   0  0  0  0  0  0  0  0  0  0  0  0
    0.5008  -53.1686  -21.5149 N   0  0  0  0  0  0  0  0  0  0  0  0
   -0.7496  -53.3356  -19.4279 N   0  0  0  0  0  0  0  0  0  0  0  0
   -1.3049  -54.1522  -18.9384 H   0  0  0  0  0  0  0  0  0  0  0  0
   -1.0020  -52.1499  -17.3784 C   0  0  0  0  0  0  0  0  0  0  0  0
   -0.6762  -51.1251  -16.5141 C   0  0  0  0  0  0  0  0  0  0  0  0
    0.2674  -50.1763  -16.8409 C   0  0  0  0  0  0  0  0  0  0  0  0
    0.8863  -50.2682  -18.0594 C   0  0  0  0  0  0  0  0  0  0  0  0
    0.5377  -51.3192  -18.9198 C   0  0  0  0  0  0  0  0  0  0  0  0
   -0.3842  -52.2657  -18.6288 C   0  0  0  0  0  0  0  0  0  0  0  0
    0.5534  -49.1661  -15.9012 N   0  0  0  0  0  0  0  0  0  0  0  0
    1.7845  -48.3765  -16.0511 C   0  0  0  0  0  0  0  0  0  0  0  0
    1.8329  -47.3236  -14.9622 C   0  0  0  0  0  0  0  0  0  0  0  0
    0.5562  -46.5785  -14.8987 N   0  0  0  0  0  0  0  0  0  0  0  0
   -0.6343  -47.3841  -14.8062 C   0  0  0  0  0  0  0  0  0  0  0  0
   -0.3028  -48.8808  -14.7994 C   0  0  0  0  0  0  0  0  0  0  0  0
    0.5642  -45.1765  -14.9250 C   0  0  0  0  0  0  0  0  0  0  0  0
    1.7554  -44.6599  -15.0108 O   0  0  0  0  0  0  0  0  0  0  0  0
   -0.5220  -44.2859  -14.8712 C   0  0  0  0  0  0  0  0  0  0  0  0
   -1.3470  -43.8636  -15.7778 C   0  0  0  0  0  0  0  0  0  0  0  0
   -3.2568  -52.6607  -16.6046 C   0  0  0  0  0  0  0  0  0  0  0  0
   -1.9583  -53.0482  -16.9560 O   0  0  0  0  0  0  0  0  0  0  0  0
    1.8322  -52.9603  -23.5781 N   0  0  0  0  0  0  0  0  0  0  0  0
    2.6501  -53.6636  -23.6283 H   0  0  0  0  0  0  0  0  0  0  0  0
    2.0586  -51.7744  -24.2989 C   0  0  0  0  0  0  0  0  0  0  0  0
    1.2331  -51.3179  -25.3033 C   0  0  0  0  0  0  0  0  0  0  0  0
    1.5437  -50.1683  -25.9941 C   0  0  0  0  0  0  0  0  0  0  0  0
    2.6807  -49.4530  -25.6998 C   0  0  0  0  0  0  0  0  0  0  0  0
    3.5007  -49.9257  -24.6907 C   0  0  0  0  0  0  0  0  0  0  0  0
    3.2308  -51.0588  -23.9809 C   0  0  0  0  0  0  0  0  0  0  0  0
    4.3353  -51.6112  -22.7418 S   0  0  0  0  0  0  0  0  0  0  0  0
    5.0246  -52.8799  -23.1520 O   0  0  0  0  0  0  0  0  0  0  0  0
    3.6758  -51.7353  -21.4000 O   0  0  0  0  0  0  0  0  0  0  0  0
    5.6495  -50.4119  -22.6037 C   0  0  0  0  0  0  0  0  0  0  0  0
    6.8056  -50.8417  -23.5249 C   0  0  0  0  0  0  0  0  0  0  0  0
    6.1528  -50.2335  -21.2137 C   0  0  0  0  0  0  0  0  0  0  0  0
 26 27  1  0  0  0
 27 10  1  0  0  0
 10 11  2  0  0  0
 11 12  1  0  0  0
 12 13  2  0  0  0
 13 14  1  0  0  0
 14 15  2  0  0  0
 15  8  1  0  0  0
  8  1  1  0  0  0
  1  2  2  0  0  0
  2  3  1  0  0  0
  3  4  2  0  0  0
  4  5  1  0  0  0
  4  6  1  0  0  0
  6 28  1  0  0  0
 28 30  1  0  0  0
 30 31  2  0  0  0
 31 32  1  0  0  0
 32 33  2  0  0  0
 33 34  1  0  0  0
 34 35  2  0  0  0
 35 36  1  0  0  0
 36 37  2  0  0  0
 36 38  2  0  0  0
 36 39  1  0  0  0
 39 40  1  0  0  0
 39 41  1  0  0  0
  6  7  2  0  0  0
 12 16  1  0  0  0
 16 17  1  0  0  0
 17 18  1  0  0  0
 18 19  1  0  0  0
 19 20  1  0  0  0
 20 21  1  0  0  0
 19 22  1  0  0  0
 22 23  2  0  0  0
 22 24  1  0  0  0
 24 25  2  0  0  0
 15 10  1  0  0  0
  7  1  1  0  0  0
 21 16  1  0  0  0
 35 30  1  0  0  0
  8  9  1  0  0  0
 28 29  1  0  0  0
M  END
> <minimizedAffinity>
-6.78321

> <CNNscore>
0.5034482479

> <CNNaffinity>
7.4967947006

> <CNN_VS>
3.7742481232

> <CNNaffinity_variance>
0.1614930034

$$$$
[H]C([H])=C([H])C(=O)N1C([H])([H])C([H])([H])N(c2c([H])c([H])c(N([H])c3nc([H])c(Cl)c(N([H])c4c([H])c([H])c([H])c([H])c4S(=O)(=O)C([H])(C([H])([H])[H])C([H])([H])[H])n3)c(OC([H])([H])[H])c2[H])C([H])([H])C1([H])[H]


 41 44  0  0  0  0  0  0  0  0999 V2000
   -0.6344  -52.5424  -21.9310 C   0  0  0  0  0  0  0  0  0  0  0  0
   -1.2161  -53.7540  -21.6393 N   0  0  0  0  0  0  0  0  0  0  0  0
   -1.2256  -54.7678  -22.5023 C   0  0  0  0  0  0  0  0  0  0  0  0
   -0.6511  -54.6555  -23.7396 C   0  0  0  0  0  0  0  0  0  0  0  0
   -0.6672  -55.9977  -24.8764 Cl  0  0  0  0  0  0  0  0  0  0  0  0
   -0.0482  -53.4275  -24.0709 C   0  0  0  0  0  0  0  0  0  0  0  0
   -0.0891  -52.4676  -23.1347 N   0  0  0  0  0  0  0  0  0  0  0  0
   -0.6895  -51.5037  -20.9766 N   0  0  0  0  0  0  0  0  0  0  0  0
   -1.6852  -51.4188  -20.5115 H   0  0  0  0  0  0  0  0  0  0  0  0
    0.5706  -50.5866  -19.1763 C   0  0  0  0  0  0  0  0  0  0  0  0
    1.5370  -49.7422  -18.6697 C   0  0  0  0  0  0  0  0  0  0  0  0
    2.2526  -48.8919  -19.4833 C   0  0  0  0  0  0  0  0  0  0  0  0
    1.9834  -48.8978  -20.8264 C   0  0  0  0  0  0  0  0  0  0  0  0
    0.9968  -49.7653  -21.3166 C   0  0  0  0  0  0  0  0  0  0  0  0
    0.2769  -50.6114  -20.5445 C   0  0  0  0  0  0  0  0  0  0  0  0
    3.2306  -48.0669  -18.8932 N   0  0  0  0  0  0  0  0  0  0  0  0
    3.4633  -46.7245  -19.4458 C   0  0  0  0  0  0  0  0  0  0  0  0
    4.5101  -46.0187  -18.6073 C   0  0  0  0  0  0  0  0  0  0  0  0
    4.1750  -46.1082  -17.1690 N   0  0  0  0  0  0  0  0  0  0  0  0
    3.9001  -47.4320  -16.6720 C   0  0  0  0  0  0  0  0  0  0  0  0
    4.0146  -48.4851  -17.7801 C   0  0  0  0  0  0  0  0  0  0  0  0
    4.1467  -44.9458  -16.3852 C   0  0  0  0  0  0  0  0  0  0  0  0
    4.4293  -43.8607  -17.0454 O   0  0  0  0  0  0  0  0  0  0  0  0
    3.8603  -44.8107  -15.0157 C   0  0  0  0  0  0  0  0  0  0  0  0
    2.7815  -45.0192  -14.3274 C   0  0  0  0  0  0  0  0  0  0  0  0
   -0.1610  -51.1101  -16.9105 C   0  0  0  0  0  0  0  0  0  0  0  0
   -0.0880  -51.3987  -18.2783 O   0  0  0  0  0  0  0  0  0  0  0  0
    0.5649  -53.3662  -25.3341 N   0  0  0  0  0  0  0  0  0  0  0  0
    1.6193  -53.5981  -25.3572 H   0  0  0  0  0  0  0  0  0  0  0  0
    0.0240  -53.0585  -26.5950 C   0  0  0  0  0  0  0  0  0  0  0  0
   -1.2985  -53.2520  -26.9302 C   0  0  0  0  0  0  0  0  0  0  0  0
   -1.7460  -52.9662  -28.2004 C   0  0  0  0  0  0  0  0  0  0  0  0
   -0.8869  -52.4845  -29.1599 C   0  0  0  0  0  0  0  0  0  0  0  0
    0.4383  -52.2981  -28.8088 C   0  0  0  0  0  0  0  0  0  0  0  0
    0.9236  -52.5673  -27.5628 C   0  0  0  0  0  0  0  0  0  0  0  0
    2.6207  -52.3379  -27.2053 S   0  0  0  0  0  0  0  0  0  0  0  0
    3.3644  -51.8178  -28.4009 O   0  0  0  0  0  0  0  0  0  0  0  0
    3.2583  -53.5709  -26.6361 O   0  0  0  0  0  0  0  0  0  0  0  0
    2.7550  -51.0355  -25.9928 C   0  0  0  0  0  0  0  0  0  0  0  0
    3.4008  -49.8077  -26.6602 C   0  0  0  0  0  0  0  0  0  0  0  0
    3.5358  -51.4210  -24.7849 C   0  0  0  0  0  0  0  0  0  0  0  0
 26 27  1  0  0  0
 27 10  1  0  0  0
 10 11  2  0  0  0
 11 12  1  0  0  0
 12 13  2  0  0  0
 13 14  1  0  0  0
 14 15  2  0  0  0
 15  8  1  0  0  0
  8  1  1  0  0  0
  1  2  2  0  0  0
  2  3  1  0  0  0
  3  4  2  0  0  0
  4  5  1  0  0  0
  4  6  1  0  0  0
  6 28  1  0  0  0
 28 30  1  0  0  0
 30 31  2  0  0  0
 31 32  1  0  0  0
 32 33  2  0  0  0
 33 34  1  0  0  0
 34 35  2  0  0  0
 35 36  1  0  0  0
 36 37  2  0  0  0
 36 38  2  0  0  0
 36 39  1  0  0  0
 39 40  1  0  0  0
 39 41  1  0  0  0
  6  7  2  0  0  0
 12 16  1  0  0  0
 16 17  1  0  0  0
 17 18  1  0  0  0
 18 19  1  0  0  0
 19 20  1  0  0  0
 20 21  1  0  0  0
 19 22  1  0  0  0
 22 23  2  0  0  0
 22 24  1  0  0  0
 24 25  2  0  0  0
 15 10  1  0  0  0
  7  1  1  0  0  0
 21 16  1  0  0  0
 35 30  1  0  0  0
  8  9  1  0  0  0
 28 29  1  0  0  0
M  END
> <minimizedAffinity>
-6.88873

> <CNNscore>
0.4348558784

> <CNNaffinity>
7.4274344444

> <CNN_VS>
3.2298636436

> <CNNaffinity_variance>
0.0697839037

$$$$
[H]C([H])=C([H])C(=O)N1C([H])([H])C([H])([H])N(c2c([H])c([H])c(N([H])c3nc([H])c(Cl)c(N([H])c4c([H])c([H])c([H])c([H])c4S(=O)(=O)C([H])(C([H])([H])[H])C([H])([H])[H])n3)c(OC([H])([H])[H])c2[H])C([H])([H])C1([H])[H]


 41 44  0  0  0  0  0  0  0  0999 V2000
    0.0658  -53.1027  -22.0501 C   0  0  0  0  0  0  0  0  0  0  0  0
   -1.2146  -53.5691  -21.8646 N   0  0  0  0  0  0  0  0  0  0  0  0
   -1.7836  -53.6348  -20.6627 C   0  0  0  0  0  0  0  0  0  0  0  0
   -1.1159  -53.2376  -19.5357 C   0  0  0  0  0  0  0  0  0  0  0  0
   -1.8721  -53.3273  -17.9500 Cl  0  0  0  0  0  0  0  0  0  0  0  0
    0.1977  -52.7564  -19.6902 C   0  0  0  0  0  0  0  0  0  0  0  0
    0.6827  -52.7278  -20.9406 N   0  0  0  0  0  0  0  0  0  0  0  0
    0.6132  -53.0903  -23.3512 N   0  0  0  0  0  0  0  0  0  0  0  0
    0.1924  -53.8863  -23.9869 H   0  0  0  0  0  0  0  0  0  0  0  0
    1.1382  -51.4481  -24.9936 C   0  0  0  0  0  0  0  0  0  0  0  0
    2.0120  -50.5784  -25.6130 C   0  0  0  0  0  0  0  0  0  0  0  0
    3.3273  -50.4719  -25.2181 C   0  0  0  0  0  0  0  0  0  0  0  0
    3.7609  -51.2580  -24.1835 C   0  0  0  0  0  0  0  0  0  0  0  0
    2.8532  -52.1337  -23.5704 C   0  0  0  0  0  0  0  0  0  0  0  0
    1.5567  -52.2619  -23.9347 C   0  0  0  0  0  0  0  0  0  0  0  0
    4.1559  -49.5533  -25.8927 N   0  0  0  0  0  0  0  0  0  0  0  0
    3.8079  -49.1467  -27.2621 C   0  0  0  0  0  0  0  0  0  0  0  0
    4.8097  -48.1157  -27.7418 C   0  0  0  0  0  0  0  0  0  0  0  0
    4.9737  -47.0402  -26.7390 N   0  0  0  0  0  0  0  0  0  0  0  0
    5.2610  -47.4755  -25.3963 C   0  0  0  0  0  0  0  0  0  0  0  0
    5.3297  -49.0040  -25.3019 C   0  0  0  0  0  0  0  0  0  0  0  0
    4.8518  -45.6985  -27.1281 C   0  0  0  0  0  0  0  0  0  0  0  0
    4.5906  -45.5405  -28.3929 O   0  0  0  0  0  0  0  0  0  0  0  0
    4.9737  -44.5374  -26.3453 C   0  0  0  0  0  0  0  0  0  0  0  0
    4.2958  -44.0955  -25.3322 C   0  0  0  0  0  0  0  0  0  0  0  0
   -0.5147  -52.1222  -26.6541 C   0  0  0  0  0  0  0  0  0  0  0  0
   -0.1571  -51.4784  -25.4636 O   0  0  0  0  0  0  0  0  0  0  0  0
    0.8339  -52.3216  -18.5148 N   0  0  0  0  0  0  0  0  0  0  0  0
    1.5957  -52.9781  -18.1216 H   0  0  0  0  0  0  0  0  0  0  0  0
    0.6486  -51.1506  -17.7587 C   0  0  0  0  0  0  0  0  0  0  0  0
   -0.4332  -50.9339  -16.9332 C   0  0  0  0  0  0  0  0  0  0  0  0
   -0.5676  -49.7425  -16.2564 C   0  0  0  0  0  0  0  0  0  0  0  0
    0.3700  -48.7454  -16.3892 C   0  0  0  0  0  0  0  0  0  0  0  0
    1.4489  -48.9772  -17.2236 C   0  0  0  0  0  0  0  0  0  0  0  0
    1.6215  -50.1421  -17.9119 C   0  0  0  0  0  0  0  0  0  0  0  0
    2.9955  -50.3466  -18.9753 S   0  0  0  0  0  0  0  0  0  0  0  0
    3.3811  -51.7922  -19.0961 O   0  0  0  0  0  0  0  0  0  0  0  0
    4.1577  -49.4830  -18.5827 O   0  0  0  0  0  0  0  0  0  0  0  0
    2.4897  -49.8789  -20.6215 C   0  0  0  0  0  0  0  0  0  0  0  0
    3.5828  -48.9857  -21.2360 C   0  0  0  0  0  0  0  0  0  0  0  0
    1.1790  -49.1739  -20.6669 C   0  0  0  0  0  0  0  0  0  0  0  0
 26 27  1  0  0  0
 27 10  1  0  0  0
 10 11  2  0  0  0
 11 12  1  0  0  0
 12 13  2  0  0  0
 13 14  1  0  0  0
 14 15  2  0  0  0
 15  8  1  0  0  0
  8  1  1  0  0  0
  1  2  2  0  0  0
  2  3  1  0  0  0
  3  4  2  0  0  0
  4  5  1  0  0  0
  4  6  1  0  0  0
  6 28  1  0  0  0
 28 30  1  0  0  0
 30 31  2  0  0  0
 31 32  1  0  0  0
 32 33  2  0  0  0
 33 34  1  0  0  0
 34 35  2  0  0  0
 35 36  1  0  0  0
 36 37  2  0  0  0
 36 38  2  0  0  0
 36 39  1  0  0  0
 39 40  1  0  0  0
 39 41  1  0  0  0
  6  7  2  0  0  0
 12 16  1  0  0  0
 16 17  1  0  0  0
 17 18  1  0  0  0
 18 19  1  0  0  0
 19 20  1  0  0  0
 20 21  1  0  0  0
 19 22  1  0  0  0
 22 23  2  0  0  0
 22 24  1  0  0  0
 24 25  2  0  0  0
 15 10  1  0  0  0
  7  1  1  0  0  0
 21 16  1  0  0  0
 35 30  1  0  0  0
  8  9  1  0  0  0
 28 29  1  0  0  0
M  END
> <minimizedAffinity>
-6.86457

> <CNNscore>
0.3625796139

> <CNNaffinity>
7.2696571350

> <CNN_VS>
2.6358294487

> <CNNaffinity_variance>
0.1411879510

$$$$
[H]C([H])=C([H])C(=O)N1C([H])([H])C([H])([H])N(c2c([H])c([H])c(N([H])c3nc([H])c(Cl)c(N([H])c4c([H])c([H])c([H])c([H])c4S(=O)(=O)C([H])(C([H])([H])[H])C([H])([H])[H])n3)c(OC([H])([H])[H])c2[H])C([H])([H])C1([H])[H]


 41 44  0  0  0  0  0  0  0  0999 V2000
   -1.0609  -52.7341  -17.7202 C   0  0  0  0  0  0  0  0  0  0  0  0
   -2.3585  -52.7550  -17.2649 N   0  0  0  0  0  0  0  0  0  0  0  0
   -2.7419  -52.1012  -16.1703 C   0  0  0  0  0  0  0  0  0  0  0  0
   -1.8542  -51.3660  -15.4319 C   0  0  0  0  0  0  0  0  0  0  0  0
   -2.3658  -50.5048  -13.9860 Cl  0  0  0  0  0  0  0  0  0  0  0  0
   -0.5171  -51.3249  -15.8696 C   0  0  0  0  0  0  0  0  0  0  0  0
   -0.2291  -52.0150  -16.9833 N   0  0  0  0  0  0  0  0  0  0  0  0
   -0.7225  -53.4763  -18.8722 N   0  0  0  0  0  0  0  0  0  0  0  0
   -1.0456  -54.5276  -18.7993 H   0  0  0  0  0  0  0  0  0  0  0  0
   -0.5502  -53.6419  -21.2414 C   0  0  0  0  0  0  0  0  0  0  0  0
    0.0236  -53.3024  -22.4493 C   0  0  0  0  0  0  0  0  0  0  0  0
    1.0805  -52.4223  -22.5255 C   0  0  0  0  0  0  0  0  0  0  0  0
    1.5611  -51.8816  -21.3623 C   0  0  0  0  0  0  0  0  0  0  0  0
    0.9605  -52.2426  -20.1476 C   0  0  0  0  0  0  0  0  0  0  0  0
   -0.0775  -53.1035  -20.0392 C   0  0  0  0  0  0  0  0  0  0  0  0
    1.6062  -52.1169  -23.7966 N   0  0  0  0  0  0  0  0  0  0  0  0
    2.7027  -52.9360  -24.3337 C   0  0  0  0  0  0  0  0  0  0  0  0
    3.0469  -52.4498  -25.7272 C   0  0  0  0  0  0  0  0  0  0  0  0
    1.8263  -52.3287  -26.5548 N   0  0  0  0  0  0  0  0  0  0  0  0
    0.7514  -51.5643  -25.9758 C   0  0  0  0  0  0  0  0  0  0  0  0
    1.1215  -51.0348  -24.5856 C   0  0  0  0  0  0  0  0  0  0  0  0
    1.7764  -52.9357  -27.8179 C   0  0  0  0  0  0  0  0  0  0  0  0
    2.8642  -53.5744  -28.1366 O   0  0  0  0  0  0  0  0  0  0  0  0
    0.7288  -52.9393  -28.7551 C   0  0  0  0  0  0  0  0  0  0  0  0
   -0.5570  -52.8368  -28.6238 C   0  0  0  0  0  0  0  0  0  0  0  0
   -2.0098  -55.1790  -22.4457 C   0  0  0  0  0  0  0  0  0  0  0  0
   -1.6033  -54.5305  -21.2736 O   0  0  0  0  0  0  0  0  0  0  0  0
    0.3536  -50.5274  -15.1071 N   0  0  0  0  0  0  0  0  0  0  0  0
    0.0739  -49.4894  -15.0058 H   0  0  0  0  0  0  0  0  0  0  0  0
    1.5420  -50.8630  -14.4345 C   0  0  0  0  0  0  0  0  0  0  0  0
    1.6393  -51.8807  -13.5107 C   0  0  0  0  0  0  0  0  0  0  0  0
    2.8285  -52.1224  -12.8606 C   0  0  0  0  0  0  0  0  0  0  0  0
    3.9414  -51.3563  -13.1163 C   0  0  0  0  0  0  0  0  0  0  0  0
    3.8271  -50.3367  -14.0445 C   0  0  0  0  0  0  0  0  0  0  0  0
    2.6692  -50.0631  -14.7116 C   0  0  0  0  0  0  0  0  0  0  0  0
    2.5943  -48.7336  -15.8463 S   0  0  0  0  0  0  0  0  0  0  0  0
    3.7272  -47.7718  -15.6349 O   0  0  0  0  0  0  0  0  0  0  0  0
    1.2608  -48.0463  -15.8367 O   0  0  0  0  0  0  0  0  0  0  0  0
    2.8655  -49.3926  -17.4824 C   0  0  0  0  0  0  0  0  0  0  0  0
    1.5940  -49.1657  -18.3203 C   0  0  0  0  0  0  0  0  0  0  0  0
    3.2244  -50.8376  -17.4932 C   0  0  0  0  0  0  0  0  0  0  0  0
 26 27  1  0  0  0
 27 10  1  0  0  0
 10 11  2  0  0  0
 11 12  1  0  0  0
 12 13  2  0  0  0
 13 14  1  0  0  0
 14 15  2  0  0  0
 15  8  1  0  0  0
  8  1  1  0  0  0
  1  2  2  0  0  0
  2  3  1  0  0  0
  3  4  2  0  0  0
  4  5  1  0  0  0
  4  6  1  0  0  0
  6 28  1  0  0  0
 28 30  1  0  0  0
 30 31  2  0  0  0
 31 32  1  0  0  0
 32 33  2  0  0  0
 33 34  1  0  0  0
 34 35  2  0  0  0
 35 36  1  0  0  0
 36 37  2  0  0  0
 36 38  2  0  0  0
 36 39  1  0  0  0
 39 40  1  0  0  0
 39 41  1  0  0  0
  6  7  2  0  0  0
 12 16  1  0  0  0
 16 17  1  0  0  0
 17 18  1  0  0  0
 18 19  1  0  0  0
 19 20  1  0  0  0
 20 21  1  0  0  0
 19 22  1  0  0  0
 22 23  2  0  0  0
 22 24  1  0  0  0
 24 25  2  0  0  0
 15 10  1  0  0  0
  7  1  1  0  0  0
 21 16  1  0  0  0
 35 30  1  0  0  0
  8  9  1  0  0  0
 28 29  1  0  0  0
M  END
> <minimizedAffinity>
-8.05656

> <CNNscore>
0.3039018512

> <CNNaffinity>
7.4468283653

> <CNN_VS>
2.2631049156

> <CNNaffinity_variance>
0.0500393808

$$$$
[H]C([H])=C([H])C(=O)N1C([H])([H])C([H])([H])N(c2c([H])c([H])c(N([H])c3nc([H])c(Cl)c(N([H])c4c([H])c([H])c([H])c([H])c4S(=O)(=O)C([H])(C([H])([H])[H])C([H])([H])[H])n3)c(OC([H])([H])[H])c2[H])C([H])([H])C1([H])[H]


 41 44  0  0  0  0  0  0  0  0999 V2000
    0.3629  -52.4605  -24.4239 C   0  0  0  0  0  0  0  0  0  0  0  0
    0.1655  -53.3068  -25.4898 N   0  0  0  0  0  0  0  0  0  0  0  0
    0.9988  -53.3553  -26.5271 C   0  0  0  0  0  0  0  0  0  0  0  0
    2.1080  -52.5554  -26.5878 C   0  0  0  0  0  0  0  0  0  0  0  0
    3.2053  -52.6228  -27.9609 Cl  0  0  0  0  0  0  0  0  0  0  0  0
    2.3387  -51.6760  -25.5133 C   0  0  0  0  0  0  0  0  0  0  0  0
    1.4434  -51.7013  -24.5147 N   0  0  0  0  0  0  0  0  0  0  0  0
   -0.5799  -52.4436  -23.3733 N   0  0  0  0  0  0  0  0  0  0  0  0
   -1.5967  -52.6851  -23.7233 H   0  0  0  0  0  0  0  0  0  0  0  0
   -1.0011  -53.0964  -21.1225 C   0  0  0  0  0  0  0  0  0  0  0  0
   -0.8786  -52.9236  -19.7592 C   0  0  0  0  0  0  0  0  0  0  0  0
   -0.1937  -51.8547  -19.2246 C   0  0  0  0  0  0  0  0  0  0  0  0
    0.3723  -50.9503  -20.0837 C   0  0  0  0  0  0  0  0  0  0  0  0
    0.2337  -51.1484  -21.4650 C   0  0  0  0  0  0  0  0  0  0  0  0
   -0.4323  -52.1865  -22.0209 C   0  0  0  0  0  0  0  0  0  0  0  0
   -0.1030  -51.7522  -17.8222 N   0  0  0  0  0  0  0  0  0  0  0  0
    0.9770  -50.9485  -17.2314 C   0  0  0  0  0  0  0  0  0  0  0  0
    0.8234  -50.9452  -15.7237 C   0  0  0  0  0  0  0  0  0  0  0  0
   -0.5631  -50.5992  -15.3403 N   0  0  0  0  0  0  0  0  0  0  0  0
   -1.5993  -51.3702  -15.9782 C   0  0  0  0  0  0  0  0  0  0  0  0
   -1.0161  -52.4060  -16.9462 C   0  0  0  0  0  0  0  0  0  0  0  0
   -0.7953  -49.5798  -14.4059 C   0  0  0  0  0  0  0  0  0  0  0  0
    0.2910  -49.0197  -13.9595 O   0  0  0  0  0  0  0  0  0  0  0  0
   -2.0190  -49.1022  -13.9056 C   0  0  0  0  0  0  0  0  0  0  0  0
   -3.0734  -48.6276  -14.4922 C   0  0  0  0  0  0  0  0  0  0  0  0
   -1.1881  -55.1101  -22.4840 C   0  0  0  0  0  0  0  0  0  0  0  0
   -1.7055  -54.1991  -21.5555 O   0  0  0  0  0  0  0  0  0  0  0  0
    3.5086  -50.9012  -25.5951 N   0  0  0  0  0  0  0  0  0  0  0  0
    3.5950  -50.2701  -26.4671 H   0  0  0  0  0  0  0  0  0  0  0  0
    4.5982  -50.8011  -24.7120 C   0  0  0  0  0  0  0  0  0  0  0  0
    5.5152  -51.8091  -24.5078 C   0  0  0  0  0  0  0  0  0  0  0  0
    6.5325  -51.6530  -23.5936 C   0  0  0  0  0  0  0  0  0  0  0  0
    6.6556  -50.4931  -22.8654 C   0  0  0  0  0  0  0  0  0  0  0  0
    5.7257  -49.4914  -23.0798 C   0  0  0  0  0  0  0  0  0  0  0  0
    4.7032  -49.6036  -23.9755 C   0  0  0  0  0  0  0  0  0  0  0  0
    3.5461  -48.3053  -24.1652 S   0  0  0  0  0  0  0  0  0  0  0  0
    2.3162  -48.5459  -23.3389 O   0  0  0  0  0  0  0  0  0  0  0  0
    3.2162  -48.0372  -25.6040 O   0  0  0  0  0  0  0  0  0  0  0  0
    4.2654  -46.8242  -23.4771 C   0  0  0  0  0  0  0  0  0  0  0  0
    3.1314  -45.9275  -22.9478 C   0  0  0  0  0  0  0  0  0  0  0  0
    5.1016  -46.0606  -24.4438 C   0  0  0  0  0  0  0  0  0  0  0  0
 26 27  1  0  0  0
 27 10  1  0  0  0
 10 11  2  0  0  0
 11 12  1  0  0  0
 12 13  2  0  0  0
 13 14  1  0  0  0
 14 15  2  0  0  0
 15  8  1  0  0  0
  8  1  1  0  0  0
  1  2  2  0  0  0
  2  3  1  0  0  0
  3  4  2  0  0  0
  4  5  1  0  0  0
  4  6  1  0  0  0
  6 28  1  0  0  0
 28 30  1  0  0  0
 30 31  2  0  0  0
 31 32  1  0  0  0
 32 33  2  0  0  0
 33 34  1  0  0  0
 34 35  2  0  0  0
 35 36  1  0  0  0
 36 37  2  0  0  0
 36 38  2  0  0  0
 36 39  1  0  0  0
 39 40  1  0  0  0
 39 41  1  0  0  0
  6  7  2  0  0  0
 12 16  1  0  0  0
 16 17  1  0  0  0
 17 18  1  0  0  0
 18 19  1  0  0  0
 19 20  1  0  0  0
 20 21  1  0  0  0
 19 22  1  0  0  0
 22 23  2  0  0  0
 22 24  1  0  0  0
 24 25  2  0  0  0
 15 10  1  0  0  0
  7  1  1  0  0  0
 21 16  1  0  0  0
 35 30  1  0  0  0
  8  9  1  0  0  0
 28 29  1  0  0  0
M  END
> <minimizedAffinity>
-6.99852

> <CNNscore>
0.2398832142

> <CNNaffinity>
7.5190520287

> <CNN_VS>
1.8036943674

> <CNNaffinity_variance>
0.1723605543

$$$$
[H]C([H])=C([H])C(=O)N1C([H])([H])C([H])([H])N(c2c([H])c([H])c(N([H])c3nc([H])c(Cl)c(N([H])c4c([H])c([H])c([H])c([H])c4S(=O)(=O)C([H])(C([H])([H])[H])C([H])([H])[H])n3)c(OC([H])([H])[H])c2[H])C([H])([H])C1([H])[H]


 41 44  0  0  0  0  0  0  0  0999 V2000
   -0.4229  -51.8440  -21.2728 C   0  0  0  0  0  0  0  0  0  0  0  0
   -1.1754  -52.8611  -20.7338 N   0  0  0  0  0  0  0  0  0  0  0  0
   -1.4063  -54.0002  -21.3834 C   0  0  0  0  0  0  0  0  0  0  0  0
   -0.9015  -54.2207  -22.6365 C   0  0  0  0  0  0  0  0  0  0  0  0
   -1.2102  -55.7270  -23.4907 Cl  0  0  0  0  0  0  0  0  0  0  0  0
   -0.1279  -53.1987  -23.2181 C   0  0  0  0  0  0  0  0  0  0  0  0
    0.0491  -52.0894  -22.4849 N   0  0  0  0  0  0  0  0  0  0  0  0
   -0.2458  -50.6528  -20.5365 N   0  0  0  0  0  0  0  0  0  0  0  0
   -1.1028  -50.4406  -19.8766 H   0  0  0  0  0  0  0  0  0  0  0  0
    1.3996  -49.4847  -19.2723 C   0  0  0  0  0  0  0  0  0  0  0  0
    2.4617  -48.6107  -19.1649 C   0  0  0  0  0  0  0  0  0  0  0  0
    2.9769  -47.9605  -20.2645 C   0  0  0  0  0  0  0  0  0  0  0  0
    2.4066  -48.1994  -21.4869 C   0  0  0  0  0  0  0  0  0  0  0  0
    1.3284  -49.0921  -21.5695 C   0  0  0  0  0  0  0  0  0  0  0  0
    0.7996  -49.7454  -20.5095 C   0  0  0  0  0  0  0  0  0  0  0  0
    4.0694  -47.0908  -20.0763 N   0  0  0  0  0  0  0  0  0  0  0  0
    3.8515  -45.8032  -19.4010 C   0  0  0  0  0  0  0  0  0  0  0  0
    5.1787  -45.0838  -19.2670 C   0  0  0  0  0  0  0  0  0  0  0  0
    6.2045  -45.9824  -18.6930 N   0  0  0  0  0  0  0  0  0  0  0  0
    6.3549  -47.2576  -19.3458 C   0  0  0  0  0  0  0  0  0  0  0  0
    5.3845  -47.4059  -20.5232 C   0  0  0  0  0  0  0  0  0  0  0  0
    6.9575  -45.5651  -17.5861 C   0  0  0  0  0  0  0  0  0  0  0  0
    6.6516  -44.3735  -17.1624 O   0  0  0  0  0  0  0  0  0  0  0  0
    7.9719  -46.2530  -16.8980 C   0  0  0  0  0  0  0  0  0  0  0  0
    8.1375  -46.5316  -15.6426 C   0  0  0  0  0  0  0  0  0  0  0  0
    0.7877  -49.3800  -16.9147 C   0  0  0  0  0  0  0  0  0  0  0  0
    0.9596  -50.0846  -18.1120 O   0  0  0  0  0  0  0  0  0  0  0  0
    0.4049  -53.4799  -24.4880 N   0  0  0  0  0  0  0  0  0  0  0  0
    1.2815  -54.1103  -24.5015 H   0  0  0  0  0  0  0  0  0  0  0  0
   -0.0258  -53.0796  -25.7653 C   0  0  0  0  0  0  0  0  0  0  0  0
   -1.3483  -53.0339  -26.1494 C   0  0  0  0  0  0  0  0  0  0  0  0
   -1.6906  -52.6720  -27.4328 C   0  0  0  0  0  0  0  0  0  0  0  0
   -0.7247  -52.3502  -28.3571 C   0  0  0  0  0  0  0  0  0  0  0  0
    0.5986  -52.4033  -27.9570 C   0  0  0  0  0  0  0  0  0  0  0  0
    0.9820  -52.7558  -26.6963 C   0  0  0  0  0  0  0  0  0  0  0  0
    2.6784  -52.8329  -26.2761 S   0  0  0  0  0  0  0  0  0  0  0  0
    3.5116  -53.2634  -27.4481 O   0  0  0  0  0  0  0  0  0  0  0  0
    2.9305  -53.6788  -25.0629 O   0  0  0  0  0  0  0  0  0  0  0  0
    3.2313  -51.1743  -25.9187 C   0  0  0  0  0  0  0  0  0  0  0  0
    4.3539  -51.2464  -24.8677 C   0  0  0  0  0  0  0  0  0  0  0  0
    2.1478  -50.2735  -25.4371 C   0  0  0  0  0  0  0  0  0  0  0  0
 26 27  1  0  0  0
 27 10  1  0  0  0
 10 11  2  0  0  0
 11 12  1  0  0  0
 12 13  2  0  0  0
 13 14  1  0  0  0
 14 15  2  0  0  0
 15  8  1  0  0  0
  8  1  1  0  0  0
  1  2  2  0  0  0
  2  3  1  0  0  0
  3  4  2  0  0  0
  4  5  1  0  0  0
  4  6  1  0  0  0
  6 28  1  0  0  0
 28 30  1  0  0  0
 30 31  2  0  0  0
 31 32  1  0  0  0
 32 33  2  0  0  0
 33 34  1  0  0  0
 34 35  2  0  0  0
 35 36  1  0  0  0
 36 37  2  0  0  0
 36 38  2  0  0  0
 36 39  1  0  0  0
 39 40  1  0  0  0
 39 41  1  0  0  0
  6  7  2  0  0  0
 12 16  1  0  0  0
 16 17  1  0  0  0
 17 18  1  0  0  0
 18 19  1  0  0  0
 19 20  1  0  0  0
 20 21  1  0  0  0
 19 22  1  0  0  0
 22 23  2  0  0  0
 22 24  1  0  0  0
 24 25  2  0  0  0
 15 10  1  0  0  0
  7  1  1  0  0  0
 21 16  1  0  0  0
 35 30  1  0  0  0
  8  9  1  0  0  0
 28 29  1  0  0  0
M  END
> <minimizedAffinity>
-7.00003

> <CNNscore>
0.2395530045

> <CNNaffinity>
7.1896705627

> <CNN_VS>
1.7223072052

> <CNNaffinity_variance>
0.0894168466

$$$$
[H]c1nc(N([H])c2c([H])c([H])c(N3C([H])([H])C([H])([H])C([H])(N4C([H])([H])C([H])([H])C([H])([H])C4([H])[H])C([H])([H])C3([H])[H])c([H])c2OC([H])([H])[H])nc(N([H])c2c([H])c([H])c([H])c([H])c2S(=O)(=O)C([H])(C([H])([H])[H])C([H])([H])[H])c1Cl


 42 46  0  0  0  0  0  0  0  0999 V2000
    0.7695  -53.2516  -23.0459 N   0  0  0  0  0  0  0  0  0  0  0  0
    0.7540  -54.2044  -23.5812 H   0  0  0  0  0  0  0  0  0  0  0  0
    0.0506  -53.2817  -21.8493 C   0  0  0  0  0  0  0  0  0  0  0  0
   -1.2176  -53.6615  -21.7843 N   0  0  0  0  0  0  0  0  0  0  0  0
   -1.9183  -53.6890  -20.6477 C   0  0  0  0  0  0  0  0  0  0  0  0
   -1.2749  -53.3019  -19.5065 C   0  0  0  0  0  0  0  0  0  0  0  0
   -2.1278  -53.3169  -17.9830 Cl  0  0  0  0  0  0  0  0  0  0  0  0
    0.0711  -52.8910  -19.5290 C   0  0  0  0  0  0  0  0  0  0  0  0
    0.6484  -52.9080  -20.7044 N   0  0  0  0  0  0  0  0  0  0  0  0
    0.7197  -52.4596  -18.3588 N   0  0  0  0  0  0  0  0  0  0  0  0
    1.5436  -53.0954  -18.0764 H   0  0  0  0  0  0  0  0  0  0  0  0
    0.4413  -51.3239  -17.5713 C   0  0  0  0  0  0  0  0  0  0  0  0
   -0.5690  -51.2569  -16.6481 C   0  0  0  0  0  0  0  0  0  0  0  0
   -0.9224  -50.1092  -15.9398 C   0  0  0  0  0  0  0  0  0  0  0  0
   -0.2171  -48.9690  -16.1781 C   0  0  0  0  0  0  0  0  0  0  0  0
    0.8022  -49.0001  -17.0954 C   0  0  0  0  0  0  0  0  0  0  0  0
    1.1603  -50.1534  -17.8072 C   0  0  0  0  0  0  0  0  0  0  0  0
    2.5350  -50.0549  -18.8361 S   0  0  0  0  0  0  0  0  0  0  0  0
    3.3820  -51.3129  -18.8495 O   0  0  0  0  0  0  0  0  0  0  0  0
    2.0205  -49.9949  -20.2929 O   0  0  0  0  0  0  0  0  0  0  0  0
    3.5216  -48.6119  -18.6631 C   0  0  0  0  0  0  0  0  0  0  0  0
    3.1632  -47.4178  -19.4516 C   0  0  0  0  0  0  0  0  0  0  0  0
    4.9691  -49.0143  -18.9420 C   0  0  0  0  0  0  0  0  0  0  0  0
    1.1457  -51.8668  -24.9767 C   0  0  0  0  0  0  0  0  0  0  0  0
    1.8213  -50.8546  -25.6205 C   0  0  0  0  0  0  0  0  0  0  0  0
    2.8359  -50.1616  -24.9954 C   0  0  0  0  0  0  0  0  0  0  0  0
    3.1941  -50.4725  -23.7045 C   0  0  0  0  0  0  0  0  0  0  0  0
    2.4978  -51.5036  -23.0641 C   0  0  0  0  0  0  0  0  0  0  0  0
    1.4929  -52.2062  -23.6533 C   0  0  0  0  0  0  0  0  0  0  0  0
    3.5525  -49.1216  -25.6412 N   0  0  0  0  0  0  0  0  0  0  0  0
    3.6876  -49.1044  -27.1023 C   0  0  0  0  0  0  0  0  0  0  0  0
    4.7274  -48.0935  -27.5226 C   0  0  0  0  0  0  0  0  0  0  0  0
    5.9903  -48.2758  -26.6863 C   0  0  0  0  0  0  0  0  0  0  0  0
    5.6967  -48.2027  -25.2295 C   0  0  0  0  0  0  0  0  0  0  0  0
    4.1945  -48.0103  -24.9703 C   0  0  0  0  0  0  0  0  0  0  0  0
    7.0506  -47.4179  -27.1095 N   0  0  0  0  0  0  0  0  0  0  0  0
    7.5530  -47.6427  -28.4127 C   0  0  0  0  0  0  0  0  0  0  0  0
    8.8893  -48.3467  -28.2960 C   0  0  0  0  0  0  0  0  0  0  0  0
    9.2870  -48.1062  -26.8645 C   0  0  0  0  0  0  0  0  0  0  0  0
    8.1516  -47.3516  -26.2151 C   0  0  0  0  0  0  0  0  0  0  0  0
   -1.0568  -51.8722  -25.9530 C   0  0  0  0  0  0  0  0  0  0  0  0
    0.1432  -52.5240  -25.6470 O   0  0  0  0  0  0  0  0  0  0  0  0
 41 42  1  0  0  0
 42 24  1  0  0  0
 24 25  2  0  0  0
 25 26  1  0  0  0
 26 27  2  0  0  0
 27 28  1  0  0  0
 28 29  2  0  0  0
 29  1  1  0  0  0
  1  3  1  0  0  0
  3  4  2  0  0  0
  4  5  1  0  0  0
  5  6  2  0  0  0
  6  7  1  0  0  0
  6  8  1  0  0  0
  8 10  1  0  0  0
 10 12  1  0  0  0
 12 13  2  0  0  0
 13 14  1  0  0  0
 14 15  2  0  0  0
 15 16  1  0  0  0
 16 17  2  0  0  0
 17 18  1  0  0  0
 18 19  2  0  0  0
 18 20  2  0  0  0
 18 21  1  0  0  0
 21 22  1  0  0  0
 21 23  1  0  0  0
  8  9  2  0  0  0
 26 30  1  0  0  0
 30 31  1  0  0  0
 31 32  1  0  0  0
 32 33  1  0  0  0
 33 34  1  0  0  0
 34 35  1  0  0  0
 33 36  1  0  0  0
 36 37  1  0  0  0
 37 38  1  0  0  0
 38 39  1  0  0  0
 39 40  1  0  0  0
 29 24  1  0  0  0
  9  3  1  0  0  0
 35 30  1  0  0  0
 40 36  1  0  0  0
 17 12  1  0  0  0
  1  2  1  0  0  0
 10 11  1  0  0  0
M  END
> <minimizedAffinity>
-6.59293

> <CNNscore>
0.2624889910

> <CNNaffinity>
7.2689199448

> <CNN_VS>
1.9080114365

> <CNNaffinity_variance>
0.3115306497

$$$$
[H]c1nc(N([H])c2c([H])c([H])c(N3C([H])([H])C([H])([H])C([H])(N4C([H])([H])C([H])([H])C([H])([H])C4([H])[H])C([H])([H])C3([H])[H])c([H])c2OC([H])([H])[H])nc(N([H])c2c([H])c([H])c([H])c([H])c2S(=O)(=O)C([H])(C([H])([H])[H])C([H])([H])[H])c1Cl


 42 46  0  0  0  0  0  0  0  0999 V2000
   -0.7963  -52.5345  -23.5514 N   0  0  0  0  0  0  0  0  0  0  0  0
   -1.8327  -52.7084  -23.8518 H   0  0  0  0  0  0  0  0  0  0  0  0
    0.1019  -52.5890  -24.6190 C   0  0  0  0  0  0  0  0  0  0  0  0
    0.1703  -53.6223  -25.4463 N   0  0  0  0  0  0  0  0  0  0  0  0
    1.0287  -53.6898  -26.4671 C   0  0  0  0  0  0  0  0  0  0  0  0
    1.8693  -52.6284  -26.6488 C   0  0  0  0  0  0  0  0  0  0  0  0
    3.0151  -52.6461  -27.9663 Cl  0  0  0  0  0  0  0  0  0  0  0  0
    1.8315  -51.5106  -25.7946 C   0  0  0  0  0  0  0  0  0  0  0  0
    0.9461  -51.5642  -24.8312 N   0  0  0  0  0  0  0  0  0  0  0  0
    2.7219  -50.4358  -25.9630 N   0  0  0  0  0  0  0  0  0  0  0  0
    2.3397  -49.6729  -26.6223 H   0  0  0  0  0  0  0  0  0  0  0  0
    3.9853  -50.2438  -25.3675 C   0  0  0  0  0  0  0  0  0  0  0  0
    4.5145  -51.0632  -24.4051 C   0  0  0  0  0  0  0  0  0  0  0  0
    5.7129  -50.8272  -23.7329 C   0  0  0  0  0  0  0  0  0  0  0  0
    6.4128  -49.7030  -24.0503 C   0  0  0  0  0  0  0  0  0  0  0  0
    5.9128  -48.8605  -25.0103 C   0  0  0  0  0  0  0  0  0  0  0  0
    4.7091  -49.0968  -25.6888 C   0  0  0  0  0  0  0  0  0  0  0  0
    4.2795  -48.0036  -26.9449 S   0  0  0  0  0  0  0  0  0  0  0  0
    5.4492  -47.2082  -27.4920 O   0  0  0  0  0  0  0  0  0  0  0  0
    3.8597  -48.8473  -28.1707 O   0  0  0  0  0  0  0  0  0  0  0  0
    2.8903  -46.9764  -26.6272 C   0  0  0  0  0  0  0  0  0  0  0  0
    2.4642  -46.0285  -27.6741 C   0  0  0  0  0  0  0  0  0  0  0  0
    3.1636  -46.2329  -25.3206 C   0  0  0  0  0  0  0  0  0  0  0  0
   -1.1118  -53.2292  -21.2700 C   0  0  0  0  0  0  0  0  0  0  0  0
   -0.9290  -53.0449  -19.9179 C   0  0  0  0  0  0  0  0  0  0  0  0
   -0.2288  -51.9613  -19.4322 C   0  0  0  0  0  0  0  0  0  0  0  0
    0.3049  -51.0363  -20.2989 C   0  0  0  0  0  0  0  0  0  0  0  0
    0.1103  -51.2381  -21.6699 C   0  0  0  0  0  0  0  0  0  0  0  0
   -0.5757  -52.2961  -22.1804 C   0  0  0  0  0  0  0  0  0  0  0  0
   -0.0354  -51.7450  -18.0437 N   0  0  0  0  0  0  0  0  0  0  0  0
   -0.9146  -52.3864  -17.0592 C   0  0  0  0  0  0  0  0  0  0  0  0
   -0.7090  -51.7759  -15.6936 C   0  0  0  0  0  0  0  0  0  0  0  0
   -0.7391  -50.2543  -15.8002 C   0  0  0  0  0  0  0  0  0  0  0  0
    0.2534  -49.7558  -16.7903 C   0  0  0  0  0  0  0  0  0  0  0  0
    1.0014  -50.9157  -17.4655 C   0  0  0  0  0  0  0  0  0  0  0  0
   -0.6569  -49.6187  -14.5240 N   0  0  0  0  0  0  0  0  0  0  0  0
   -1.1076  -50.3777  -13.4185 C   0  0  0  0  0  0  0  0  0  0  0  0
   -2.4632  -49.8496  -12.9959 C   0  0  0  0  0  0  0  0  0  0  0  0
   -2.5296  -48.4952  -13.6488 C   0  0  0  0  0  0  0  0  0  0  0  0
   -1.2659  -48.3374  -14.4602 C   0  0  0  0  0  0  0  0  0  0  0  0
   -1.2404  -55.2452  -22.5828 C   0  0  0  0  0  0  0  0  0  0  0  0
   -1.8175  -54.3267  -21.6986 O   0  0  0  0  0  0  0  0  0  0  0  0
 41 42  1  0  0  0
 42 24  1  0  0  0
 24 25  2  0  0  0
 25 26  1  0  0  0
 26 27  2  0  0  0
 27 28  1  0  0  0
 28 29  2  0  0  0
 29  1  1  0  0  0
  1  3  1  0  0  0
  3  4  2  0  0  0
  4  5  1  0  0  0
  5  6  2  0  0  0
  6  7  1  0  0  0
  6  8  1  0  0  0
  8 10  1  0  0  0
 10 12  1  0  0  0
 12 13  2  0  0  0
 13 14  1  0  0  0
 14 15  2  0  0  0
 15 16  1  0  0  0
 16 17  2  0  0  0
 17 18  1  0  0  0
 18 19  2  0  0  0
 18 20  2  0  0  0
 18 21  1  0  0  0
 21 22  1  0  0  0
 21 23  1  0  0  0
  8  9  2  0  0  0
 26 30  1  0  0  0
 30 31  1  0  0  0
 31 32  1  0  0  0
 32 33  1  0  0  0
 33 34  1  0  0  0
 34 35  1  0  0  0
 33 36  1  0  0  0
 36 37  1  0  0  0
 37 38  1  0  0  0
 38 39  1  0  0  0
 39 40  1  0  0  0
 29 24  1  0  0  0
  9  3  1  0  0  0
 35 30  1  0  0  0
 40 36  1  0  0  0
 17 12  1  0  0  0
  1  2  1  0  0  0
 10 11  1  0  0  0
M  END
> <minimizedAffinity>
-7.74507

> <CNNscore>
0.1991857439

> <CNNaffinity>
7.3624777794

> <CNN_VS>
1.4665006399

> <CNNaffinity_variance>
0.2028528005

$$$$
[H]c1nc(N([H])c2c([H])c([H])c(N3C([H])([H])C([H])([H])C([H])(N4C([H])([H])C([H])([H])C([H])([H])C4([H])[H])C([H])([H])C3([H])[H])c([H])c2OC([H])([H])[H])nc(N([H])c2c([H])c([H])c([H])c([H])c2S(=O)(=O)C([H])(C([H])([H])[H])C([H])([H])[H])c1Cl


 42 46  0  0  0  0  0  0  0  0999 V2000
    0.3015  -51.0034  -18.9967 N   0  0  0  0  0  0  0  0  0  0  0  0
   -0.2350  -51.0238  -18.0446 H   0  0  0  0  0  0  0  0  0  0  0  0
   -0.1169  -51.9964  -19.8846 C   0  0  0  0  0  0  0  0  0  0  0  0
   -0.5698  -53.1748  -19.4807 N   0  0  0  0  0  0  0  0  0  0  0  0
   -0.9671  -54.1352  -20.3193 C   0  0  0  0  0  0  0  0  0  0  0  0
   -0.8943  -53.8673  -21.6569 C   0  0  0  0  0  0  0  0  0  0  0  0
   -1.4011  -55.0751  -22.8115 Cl  0  0  0  0  0  0  0  0  0  0  0  0
   -0.4198  -52.6298  -22.1304 C   0  0  0  0  0  0  0  0  0  0  0  0
   -0.0606  -51.7713  -21.2090 N   0  0  0  0  0  0  0  0  0  0  0  0
   -0.3130  -52.3705  -23.5080 N   0  0  0  0  0  0  0  0  0  0  0  0
   -1.1627  -52.7248  -24.0693 H   0  0  0  0  0  0  0  0  0  0  0  0
    0.7207  -51.7025  -24.1956 C   0  0  0  0  0  0  0  0  0  0  0  0
    1.6643  -50.9152  -23.5894 C   0  0  0  0  0  0  0  0  0  0  0  0
    2.6258  -50.1653  -24.2654 C   0  0  0  0  0  0  0  0  0  0  0  0
    2.6332  -50.2139  -25.6263 C   0  0  0  0  0  0  0  0  0  0  0  0
    1.7032  -50.9929  -26.2663 C   0  0  0  0  0  0  0  0  0  0  0  0
    0.7368  -51.7490  -25.5885 C   0  0  0  0  0  0  0  0  0  0  0  0
   -0.2825  -52.7622  -26.5331 S   0  0  0  0  0  0  0  0  0  0  0  0
   -0.3897  -54.1820  -26.0107 O   0  0  0  0  0  0  0  0  0  0  0  0
   -1.7307  -52.2461  -26.3683 O   0  0  0  0  0  0  0  0  0  0  0  0
   -0.0035  -52.7298  -28.2671 C   0  0  0  0  0  0  0  0  0  0  0  0
   -1.1697  -52.8063  -29.1673 C   0  0  0  0  0  0  0  0  0  0  0  0
    0.9871  -53.8476  -28.5896 C   0  0  0  0  0  0  0  0  0  0  0  0
    2.3382  -50.0014  -18.1999 C   0  0  0  0  0  0  0  0  0  0  0  0
    3.3262  -49.0467  -18.2877 C   0  0  0  0  0  0  0  0  0  0  0  0
    3.3082  -48.0881  -19.2784 C   0  0  0  0  0  0  0  0  0  0  0  0
    2.2927  -48.0693  -20.2057 C   0  0  0  0  0  0  0  0  0  0  0  0
    1.2963  -49.0464  -20.1026 C   0  0  0  0  0  0  0  0  0  0  0  0
    1.2854  -50.0048  -19.1372 C   0  0  0  0  0  0  0  0  0  0  0  0
    4.3094  -47.0889  -19.3837 N   0  0  0  0  0  0  0  0  0  0  0  0
    5.4052  -47.0251  -18.4096 C   0  0  0  0  0  0  0  0  0  0  0  0
    6.1557  -45.7221  -18.5466 C   0  0  0  0  0  0  0  0  0  0  0  0
    5.1670  -44.5610  -18.5931 C   0  0  0  0  0  0  0  0  0  0  0  0
    4.1608  -44.7426  -19.6739 C   0  0  0  0  0  0  0  0  0  0  0  0
    4.3684  -46.0730  -20.4141 C   0  0  0  0  0  0  0  0  0  0  0  0
    5.8208  -43.2916  -18.6144 N   0  0  0  0  0  0  0  0  0  0  0  0
    5.4073  -42.3935  -19.6262 C   0  0  0  0  0  0  0  0  0  0  0  0
    6.4739  -42.3594  -20.7015 C   0  0  0  0  0  0  0  0  0  0  0  0
    7.6777  -42.9503  -20.0182 C   0  0  0  0  0  0  0  0  0  0  0  0
    7.2393  -43.3561  -18.6314 C   0  0  0  0  0  0  0  0  0  0  0  0
    2.1350  -50.5720  -15.8680 C   0  0  0  0  0  0  0  0  0  0  0  0
    2.4059  -50.9328  -17.1928 O   0  0  0  0  0  0  0  0  0  0  0  0
 41 42  1  0  0  0
 42 24  1  0  0  0
 24 25  2  0  0  0
 25 26  1  0  0  0
 26 27  2  0  0  0
 27 28  1  0  0  0
 28 29  2  0  0  0
 29  1  1  0  0  0
  1  3  1  0  0  0
  3  4  2  0  0  0
  4  5  1  0  0  0
  5  6  2  0  0  0
  6  7  1  0  0  0
  6  8  1  0  0  0
  8 10  1  0  0  0
 10 12  1  0  0  0
 12 13  2  0  0  0
 13 14  1  0  0  0
 14 15  2  0  0  0
 15 16  1  0  0  0
 16 17  2  0  0  0
 17 18  1  0  0  0
 18 19  2  0  0  0
 18 20  2  0  0  0
 18 21  1  0  0  0
 21 22  1  0  0  0
 21 23  1  0  0  0
  8  9  2  0  0  0
 26 30  1  0  0  0
 30 31  1  0  0  0
 31 32  1  0  0  0
 32 33  1  0  0  0
 33 34  1  0  0  0
 34 35  1  0  0  0
 33 36  1  0  0  0
 36 37  1  0  0  0
 37 38  1  0  0  0
 38 39  1  0  0  0
 39 40  1  0  0  0
 29 24  1  0  0  0
  9  3  1  0  0  0
 35 30  1  0  0  0
 40 36  1  0  0  0
 17 12  1  0  0  0
  1  2  1  0  0  0
 10 11  1  0  0  0
M  END
> <minimizedAffinity>
-7.49600

> <CNNscore>
0.1891448498

> <CNNaffinity>
6.8872337341

> <CNN_VS>
1.3026847839

> <CNNaffinity_variance>
0.2497493327

$$$$
[H]c1nc(N([H])c2c([H])c([H])c(N3C([H])([H])C([H])([H])C([H])(N4C([H])([H])C([H])([H])C([H])([H])C4([H])[H])C([H])([H])C3([H])[H])c([H])c2OC([H])([H])[H])nc(N([H])c2c([H])c([H])c([H])c([H])c2S(=O)(=O)C([H])(C([H])([H])[H])C([H])([H])[H])c1Cl


 42 46  0  0  0  0  0  0  0  0999 V2000
    0.4639  -50.9706  -19.6769 N   0  0  0  0  0  0  0  0  0  0  0  0
    0.0293  -50.9498  -18.6742 H   0  0  0  0  0  0  0  0  0  0  0  0
   -0.0126  -52.0231  -20.4608 C   0  0  0  0  0  0  0  0  0  0  0  0
   -0.7779  -52.9899  -19.9745 N   0  0  0  0  0  0  0  0  0  0  0  0
   -1.2351  -54.0052  -20.7118 C   0  0  0  0  0  0  0  0  0  0  0  0
   -0.8835  -54.0281  -22.0316 C   0  0  0  0  0  0  0  0  0  0  0  0
   -1.4488  -55.3236  -23.0568 Cl  0  0  0  0  0  0  0  0  0  0  0  0
   -0.0727  -53.0225  -22.5903 C   0  0  0  0  0  0  0  0  0  0  0  0
    0.3114  -52.0813  -21.7645 N   0  0  0  0  0  0  0  0  0  0  0  0
    0.3162  -53.0679  -23.9404 N   0  0  0  0  0  0  0  0  0  0  0  0
   -0.5132  -53.2237  -24.6116 H   0  0  0  0  0  0  0  0  0  0  0  0
    1.6065  -52.9086  -24.4858 C   0  0  0  0  0  0  0  0  0  0  0  0
    2.7067  -52.5318  -23.7611 C   0  0  0  0  0  0  0  0  0  0  0  0
    3.9632  -52.2681  -24.3047 C   0  0  0  0  0  0  0  0  0  0  0  0
    4.1149  -52.3916  -25.6523 C   0  0  0  0  0  0  0  0  0  0  0  0
    3.0345  -52.7682  -26.4087 C   0  0  0  0  0  0  0  0  0  0  0  0
    1.7708  -53.0356  -25.8640 C   0  0  0  0  0  0  0  0  0  0  0  0
    0.5516  -53.6076  -26.9336 S   0  0  0  0  0  0  0  0  0  0  0  0
    1.0886  -54.4162  -28.0990 O   0  0  0  0  0  0  0  0  0  0  0  0
   -0.2823  -54.6595  -26.1663 O   0  0  0  0  0  0  0  0  0  0  0  0
   -0.6278  -52.4173  -27.4605 C   0  0  0  0  0  0  0  0  0  0  0  0
   -1.8070  -52.1726  -26.6085 C   0  0  0  0  0  0  0  0  0  0  0  0
   -1.0670  -52.8056  -28.8716 C   0  0  0  0  0  0  0  0  0  0  0  0
    2.6814  -50.0781  -19.4065 C   0  0  0  0  0  0  0  0  0  0  0  0
    3.6322  -49.1154  -19.6606 C   0  0  0  0  0  0  0  0  0  0  0  0
    3.3535  -48.0292  -20.4625 C   0  0  0  0  0  0  0  0  0  0  0  0
    2.1081  -47.8874  -21.0285 C   0  0  0  0  0  0  0  0  0  0  0  0
    1.1530  -48.8745  -20.7605 C   0  0  0  0  0  0  0  0  0  0  0  0
    1.3966  -49.9572  -19.9737 C   0  0  0  0  0  0  0  0  0  0  0  0
    4.3133  -47.0199  -20.7312 N   0  0  0  0  0  0  0  0  0  0  0  0
    4.1472  -46.1186  -21.8773 C   0  0  0  0  0  0  0  0  0  0  0  0
    5.4212  -45.3485  -22.1299 C   0  0  0  0  0  0  0  0  0  0  0  0
    6.6091  -46.3059  -22.1349 C   0  0  0  0  0  0  0  0  0  0  0  0
    6.6762  -47.1004  -20.8787 C   0  0  0  0  0  0  0  0  0  0  0  0
    5.5026  -46.7695  -19.9438 C   0  0  0  0  0  0  0  0  0  0  0  0
    7.8321  -45.6521  -22.4754 N   0  0  0  0  0  0  0  0  0  0  0  0
    7.7198  -44.3208  -22.9405 C   0  0  0  0  0  0  0  0  0  0  0  0
    7.9251  -44.3188  -24.4415 C   0  0  0  0  0  0  0  0  0  0  0  0
    8.5800  -45.6479  -24.7061 C   0  0  0  0  0  0  0  0  0  0  0  0
    8.6552  -46.3707  -23.3825 C   0  0  0  0  0  0  0  0  0  0  0  0
    3.2958  -50.9439  -17.2438 C   0  0  0  0  0  0  0  0  0  0  0  0
    3.0135  -51.1393  -18.6005 O   0  0  0  0  0  0  0  0  0  0  0  0
 41 42  1  0  0  0
 42 24  1  0  0  0
 24 25  2  0  0  0
 25 26  1  0  0  0
 26 27  2  0  0  0
 27 28  1  0  0  0
 28 29  2  0  0  0
 29  1  1  0  0  0
  1  3  1  0  0  0
  3  4  2  0  0  0
  4  5  1  0  0  0
  5  6  2  0  0  0
  6  7  1  0  0  0
  6  8  1  0  0  0
  8 10  1  0  0  0
 10 12  1  0  0  0
 12 13  2  0  0  0
 13 14  1  0  0  0
 14 15  2  0  0  0
 15 16  1  0  0  0
 16 17  2  0  0  0
 17 18  1  0  0  0
 18 19  2  0  0  0
 18 20  2  0  0  0
 18 21  1  0  0  0
 21 22  1  0  0  0
 21 23  1  0  0  0
  8  9  2  0  0  0
 26 30  1  0  0  0
 30 31  1  0  0  0
 31 32  1  0  0  0
 32 33  1  0  0  0
 33 34  1  0  0  0
 34 35  1  0  0  0
 33 36  1  0  0  0
 36 37  1  0  0  0
 37 38  1  0  0  0
 38 39  1  0  0  0
 39 40  1  0  0  0
 29 24  1  0  0  0
  9  3  1  0  0  0
 35 30  1  0  0  0
 40 36  1  0  0  0
 17 12  1  0  0  0
  1  2  1  0  0  0
 10 11  1  0  0  0
M  END
> <minimizedAffinity>
-8.01786

> <CNNscore>
0.1621194035

> <CNNaffinity>
7.1917428970

> <CNN_VS>
1.1659210920

> <CNNaffinity_variance>
0.2219259441

$$$$
[H]c1nc(N([H])c2c([H])c([H])c(N3C([H])([H])C([H])([H])C([H])(N4C([H])([H])C([H])([H])C([H])([H])C4([H])[H])C([H])([H])C3([H])[H])c([H])c2OC([H])([H])[H])nc(N([H])c2c([H])c([H])c([H])c([H])c2S(=O)(=O)C([H])(C([H])([H])[H])C([H])([H])[H])c1Cl


 42 46  0  0  0  0  0  0  0  0999 V2000
    0.9570  -53.0274  -23.1541 N   0  0  0  0  0  0  0  0  0  0  0  0
    0.7398  -53.9433  -23.7096 H   0  0  0  0  0  0  0  0  0  0  0  0
    0.3917  -53.0117  -21.8775 C   0  0  0  0  0  0  0  0  0  0  0  0
   -0.4490  -53.9449  -21.4542 N   0  0  0  0  0  0  0  0  0  0  0  0
   -1.0014  -53.9384  -20.2384 C   0  0  0  0  0  0  0  0  0  0  0  0
   -0.6685  -52.9081  -19.4055 C   0  0  0  0  0  0  0  0  0  0  0  0
   -1.3495  -52.8375  -17.7992 Cl  0  0  0  0  0  0  0  0  0  0  0  0
    0.2199  -51.8955  -19.8132 C   0  0  0  0  0  0  0  0  0  0  0  0
    0.6942  -52.0143  -21.0281 N   0  0  0  0  0  0  0  0  0  0  0  0
    0.5328  -50.8179  -18.9665 N   0  0  0  0  0  0  0  0  0  0  0  0
    0.1797  -50.9600  -17.9576 H   0  0  0  0  0  0  0  0  0  0  0  0
    1.2501  -49.6434  -19.2726 C   0  0  0  0  0  0  0  0  0  0  0  0
    1.2433  -49.0361  -20.5009 C   0  0  0  0  0  0  0  0  0  0  0  0
    2.0286  -47.9376  -20.8477 C   0  0  0  0  0  0  0  0  0  0  0  0
    2.8652  -47.4265  -19.9027 C   0  0  0  0  0  0  0  0  0  0  0  0
    2.8970  -48.0092  -18.6614 C   0  0  0  0  0  0  0  0  0  0  0  0
    2.1069  -49.1125  -18.3100 C   0  0  0  0  0  0  0  0  0  0  0  0
    2.1804  -49.6526  -16.6788 S   0  0  0  0  0  0  0  0  0  0  0  0
    2.3073  -51.1572  -16.5364 O   0  0  0  0  0  0  0  0  0  0  0  0
    3.5196  -49.1569  -16.0860 O   0  0  0  0  0  0  0  0  0  0  0  0
    0.9583  -49.0009  -15.5983 C   0  0  0  0  0  0  0  0  0  0  0  0
   -0.4513  -49.0333  -16.0320 C   0  0  0  0  0  0  0  0  0  0  0  0
    1.3722  -47.5712  -15.2528 C   0  0  0  0  0  0  0  0  0  0  0  0
    1.4047  -51.7671  -25.1537 C   0  0  0  0  0  0  0  0  0  0  0  0
    2.1414  -50.8375  -25.8526 C   0  0  0  0  0  0  0  0  0  0  0  0
    3.2103  -50.1890  -25.2718 C   0  0  0  0  0  0  0  0  0  0  0  0
    3.5625  -50.4622  -23.9707 C   0  0  0  0  0  0  0  0  0  0  0  0
    2.8037  -51.4094  -23.2741 C   0  0  0  0  0  0  0  0  0  0  0  0
    1.7442  -52.0664  -23.8187 C   0  0  0  0  0  0  0  0  0  0  0  0
    3.9899  -49.2346  -25.9743 N   0  0  0  0  0  0  0  0  0  0  0  0
    5.1622  -48.6182  -25.3423 C   0  0  0  0  0  0  0  0  0  0  0  0
    5.6371  -47.4369  -26.1540 C   0  0  0  0  0  0  0  0  0  0  0  0
    4.4524  -46.5400  -26.4997 C   0  0  0  0  0  0  0  0  0  0  0  0
    3.3766  -47.2984  -27.1935 C   0  0  0  0  0  0  0  0  0  0  0  0
    3.7378  -48.7858  -27.3279 C   0  0  0  0  0  0  0  0  0  0  0  0
    4.8528  -45.3480  -27.1765 N   0  0  0  0  0  0  0  0  0  0  0  0
    3.9317  -44.8223  -28.1126 C   0  0  0  0  0  0  0  0  0  0  0  0
    4.4310  -45.1412  -29.5069 C   0  0  0  0  0  0  0  0  0  0  0  0
    5.8798  -45.4855  -29.2888 C   0  0  0  0  0  0  0  0  0  0  0  0
    6.1265  -45.4207  -27.8005 C   0  0  0  0  0  0  0  0  0  0  0  0
   -0.8528  -51.6988  -25.9925 C   0  0  0  0  0  0  0  0  0  0  0  0
    0.3498  -52.3829  -25.7815 O   0  0  0  0  0  0  0  0  0  0  0  0
 41 42  1  0  0  0
 42 24  1  0  0  0
 24 25  2  0  0  0
 25 26  1  0  0  0
 26 27  2  0  0  0
 27 28  1  0  0  0
 28 29  2  0  0  0
 29  1  1  0  0  0
  1  3  1  0  0  0
  3  4  2  0  0  0
  4  5  1  0  0  0
  5  6  2  0  0  0
  6  7  1  0  0  0
  6  8  1  0  0  0
  8 10  1  0  0  0
 10 12  1  0  0  0
 12 13  2  0  0  0
 13 14  1  0  0  0
 14 15  2  0  0  0
 15 16  1  0  0  0
 16 17  2  0  0  0
 17 18  1  0  0  0
 18 19  2  0  0  0
 18 20  2  0  0  0
 18 21  1  0  0  0
 21 22  1  0  0  0
 21 23  1  0  0  0
  8  9  2  0  0  0
 26 30  1  0  0  0
 30 31  1  0  0  0
 31 32  1  0  0  0
 32 33  1  0  0  0
 33 34  1  0  0  0
 34 35  1  0  0  0
 33 36  1  0  0  0
 36 37  1  0  0  0
 37 38  1  0  0  0
 38 39  1  0  0  0
 39 40  1  0  0  0
 29 24  1  0  0  0
  9  3  1  0  0  0
 35 30  1  0  0  0
 40 36  1  0  0  0
 17 12  1  0  0  0
  1  2  1  0  0  0
 10 11  1  0  0  0
M  END
> <minimizedAffinity>
-6.76503

> <CNNscore>
0.1594187915

> <CNNaffinity>
7.2164864540

> <CNN_VS>
1.1504435539

> <CNNaffinity_variance>
0.2164974660

$$$$
[H]c1nc(N([H])c2c([H])c([H])c(N3C([H])([H])C([H])([H])C([H])(N4C([H])([H])C([H])([H])C([H])([H])C4([H])[H])C([H])([H])C3([H])[H])c([H])c2OC([H])([H])[H])nc(N([H])c2c([H])c([H])c([H])c([H])c2S(=O)(=O)C([H])(C([H])([H])[H])C([H])([H])[H])c1Cl


 42 46  0  0  0  0  0  0  0  0999 V2000
   -0.8057  -52.8626  -23.7288 N   0  0  0  0  0  0  0  0  0  0  0  0
   -1.8290  -53.1305  -24.0043 H   0  0  0  0  0  0  0  0  0  0  0  0
    0.0776  -52.8823  -24.8100 C   0  0  0  0  0  0  0  0  0  0  0  0
   -0.2196  -53.4542  -25.9682 N   0  0  0  0  0  0  0  0  0  0  0  0
    0.6182  -53.4854  -27.0077 C   0  0  0  0  0  0  0  0  0  0  0  0
    1.8378  -52.8916  -26.8464 C   0  0  0  0  0  0  0  0  0  0  0  0
    2.9824  -52.8905  -28.1651 Cl  0  0  0  0  0  0  0  0  0  0  0  0
    2.1956  -52.2728  -25.6341 C   0  0  0  0  0  0  0  0  0  0  0  0
    1.2878  -52.3087  -24.6908 N   0  0  0  0  0  0  0  0  0  0  0  0
    3.4646  -51.6936  -25.4596 N   0  0  0  0  0  0  0  0  0  0  0  0
    4.2640  -52.4168  -25.4873 H   0  0  0  0  0  0  0  0  0  0  0  0
    3.7902  -50.3322  -25.2915 C   0  0  0  0  0  0  0  0  0  0  0  0
    3.1274  -49.3015  -25.9047 C   0  0  0  0  0  0  0  0  0  0  0  0
    3.5035  -47.9610  -25.8318 C   0  0  0  0  0  0  0  0  0  0  0  0
    4.6083  -47.6463  -25.1006 C   0  0  0  0  0  0  0  0  0  0  0  0
    5.2956  -48.6533  -24.4722 C   0  0  0  0  0  0  0  0  0  0  0  0
    4.9182  -50.0015  -24.5427 C   0  0  0  0  0  0  0  0  0  0  0  0
    5.8189  -51.1267  -23.6043 S   0  0  0  0  0  0  0  0  0  0  0  0
    5.9695  -52.4874  -24.2571 O   0  0  0  0  0  0  0  0  0  0  0  0
    7.2810  -50.6261  -23.5574 O   0  0  0  0  0  0  0  0  0  0  0  0
    5.3522  -51.2665  -21.9167 C   0  0  0  0  0  0  0  0  0  0  0  0
    3.9180  -51.2038  -21.5774 C   0  0  0  0  0  0  0  0  0  0  0  0
    6.1257  -50.2012  -21.1409 C   0  0  0  0  0  0  0  0  0  0  0  0
   -1.0948  -53.4620  -21.4171 C   0  0  0  0  0  0  0  0  0  0  0  0
   -0.9101  -53.2136  -20.0756 C   0  0  0  0  0  0  0  0  0  0  0  0
   -0.2329  -52.0937  -19.6424 C   0  0  0  0  0  0  0  0  0  0  0  0
    0.2754  -51.1964  -20.5523 C   0  0  0  0  0  0  0  0  0  0  0  0
    0.0793  -51.4634  -21.9118 C   0  0  0  0  0  0  0  0  0  0  0  0
   -0.5844  -52.5585  -22.3711 C   0  0  0  0  0  0  0  0  0  0  0  0
   -0.0382  -51.8115  -18.2660 N   0  0  0  0  0  0  0  0  0  0  0  0
   -0.9273  -52.3911  -17.2525 C   0  0  0  0  0  0  0  0  0  0  0  0
   -0.7150  -51.7165  -15.9185 C   0  0  0  0  0  0  0  0  0  0  0  0
   -0.7240  -50.2017  -16.1005 C   0  0  0  0  0  0  0  0  0  0  0  0
    0.2764  -49.7666  -17.1123 C   0  0  0  0  0  0  0  0  0  0  0  0
    1.0093  -50.9687  -17.7277 C   0  0  0  0  0  0  0  0  0  0  0  0
   -0.6346  -49.5048  -14.8573 N   0  0  0  0  0  0  0  0  0  0  0  0
   -1.8288  -49.4163  -14.1040 C   0  0  0  0  0  0  0  0  0  0  0  0
   -2.3768  -48.0103  -14.2386 C   0  0  0  0  0  0  0  0  0  0  0  0
   -1.1987  -47.2234  -14.7466 C   0  0  0  0  0  0  0  0  0  0  0  0
   -0.0690  -48.2052  -14.9462 C   0  0  0  0  0  0  0  0  0  0  0  0
   -1.3043  -55.3984  -22.8352 C   0  0  0  0  0  0  0  0  0  0  0  0
   -1.7769  -54.5933  -21.7926 O   0  0  0  0  0  0  0  0  0  0  0  0
 41 42  1  0  0  0
 42 24  1  0  0  0
 24 25  2  0  0  0
 25 26  1  0  0  0
 26 27  2  0  0  0
 27 28  1  0  0  0
 28 29  2  0  0  0
 29  1  1  0  0  0
  1  3  1  0  0  0
  3  4  2  0  0  0
  4  5  1  0  0  0
  5  6  2  0  0  0
  6  7  1  0  0  0
  6  8  1  0  0  0
  8 10  1  0  0  0
 10 12  1  0  0  0
 12 13  2  0  0  0
 13 14  1  0  0  0
 14 15  2  0  0  0
 15 16  1  0  0  0
 16 17  2  0  0  0
 17 18  1  0  0  0
 18 19  2  0  0  0
 18 20  2  0  0  0
 18 21  1  0  0  0
 21 22  1  0  0  0
 21 23  1  0  0  0
  8  9  2  0  0  0
 26 30  1  0  0  0
 30 31  1  0  0  0
 31 32  1  0  0  0
 32 33  1  0  0  0
 33 34  1  0  0  0
 34 35  1  0  0  0
 33 36  1  0  0  0
 36 37  1  0  0  0
 37 38  1  0  0  0
 38 39  1  0  0  0
 39 40  1  0  0  0
 29 24  1  0  0  0
  9  3  1  0  0  0
 35 30  1  0  0  0
 40 36  1  0  0  0
 17 12  1  0  0  0
  1  2  1  0  0  0
 10 11  1  0  0  0
M  END
> <minimizedAffinity>
-8.23190

> <CNNscore>
0.1384000033

> <CNNaffinity>
7.3429040909

> <CNN_VS>
1.0162580013

> <CNNaffinity_variance>
0.2743583918

$$$$
[H]c1nc(N([H])c2c([H])c([H])c(N3C([H])([H])C([H])([H])C([H])(N4C([H])([H])C([H])([H])C([H])([H])C4([H])[H])C([H])([H])C3([H])[H])c([H])c2OC([H])([H])[H])nc(N([H])c2c([H])c([H])c([H])c([H])c2S(=O)(=O)C([H])(C([H])([H])[H])C([H])([H])[H])c1Cl


 42 46  0  0  0  0  0  0  0  0999 V2000
   -0.4957  -52.8857  -23.6633 N   0  0  0  0  0  0  0  0  0  0  0  0
   -1.4895  -53.2707  -23.9059 H   0  0  0  0  0  0  0  0  0  0  0  0
    0.3658  -52.8569  -24.7617 C   0  0  0  0  0  0  0  0  0  0  0  0
    0.0203  -53.3161  -25.9561 N   0  0  0  0  0  0  0  0  0  0  0  0
    0.8365  -53.3001  -27.0129 C   0  0  0  0  0  0  0  0  0  0  0  0
    2.0862  -52.7793  -26.8305 C   0  0  0  0  0  0  0  0  0  0  0  0
    3.2053  -52.7222  -28.1696 Cl  0  0  0  0  0  0  0  0  0  0  0  0
    2.4955  -52.2807  -25.5797 C   0  0  0  0  0  0  0  0  0  0  0  0
    1.6043  -52.3523  -24.6227 N   0  0  0  0  0  0  0  0  0  0  0  0
    3.7940  -51.7779  -25.3864 N   0  0  0  0  0  0  0  0  0  0  0  0
    4.3930  -51.8058  -26.2826 H   0  0  0  0  0  0  0  0  0  0  0  0
    4.3587  -51.2394  -24.2123 C   0  0  0  0  0  0  0  0  0  0  0  0
    4.7407  -51.9873  -23.1295 C   0  0  0  0  0  0  0  0  0  0  0  0
    5.2011  -51.4607  -21.9235 C   0  0  0  0  0  0  0  0  0  0  0  0
    5.2787  -50.1062  -21.8061 C   0  0  0  0  0  0  0  0  0  0  0  0
    4.9053  -49.3266  -22.8710 C   0  0  0  0  0  0  0  0  0  0  0  0
    4.4440  -49.8541  -24.0851 C   0  0  0  0  0  0  0  0  0  0  0  0
    4.1249  -48.7454  -25.3606 S   0  0  0  0  0  0  0  0  0  0  0  0
    2.8824  -49.0772  -26.1646 O   0  0  0  0  0  0  0  0  0  0  0  0
    3.7419  -47.3936  -24.7152 O   0  0  0  0  0  0  0  0  0  0  0  0
    5.4861  -48.3605  -26.4020 C   0  0  0  0  0  0  0  0  0  0  0  0
    6.6628  -47.7014  -25.8043 C   0  0  0  0  0  0  0  0  0  0  0  0
    4.9483  -47.5282  -27.5650 C   0  0  0  0  0  0  0  0  0  0  0  0
   -0.4047  -53.5085  -21.3415 C   0  0  0  0  0  0  0  0  0  0  0  0
   -0.2111  -53.1920  -20.0156 C   0  0  0  0  0  0  0  0  0  0  0  0
    0.0997  -51.9070  -19.6252 C   0  0  0  0  0  0  0  0  0  0  0  0
    0.2235  -50.9088  -20.5633 C   0  0  0  0  0  0  0  0  0  0  0  0
    0.0238  -51.2468  -21.9064 C   0  0  0  0  0  0  0  0  0  0  0  0
   -0.2843  -52.5045  -22.3236 C   0  0  0  0  0  0  0  0  0  0  0  0
    0.2945  -51.5548  -18.2650 N   0  0  0  0  0  0  0  0  0  0  0  0
   -0.6447  -52.0119  -17.2342 C   0  0  0  0  0  0  0  0  0  0  0  0
   -0.4056  -51.2725  -15.9396 C   0  0  0  0  0  0  0  0  0  0  0  0
   -0.3112  -49.7744  -16.2122 C   0  0  0  0  0  0  0  0  0  0  0  0
    0.7293  -49.4685  -17.2308 C   0  0  0  0  0  0  0  0  0  0  0  0
    1.3885  -50.7514  -17.7602 C   0  0  0  0  0  0  0  0  0  0  0  0
   -0.1921  -49.0104  -15.0116 N   0  0  0  0  0  0  0  0  0  0  0  0
    0.6840  -47.9008  -15.0622 C   0  0  0  0  0  0  0  0  0  0  0  0
    1.9563  -48.2612  -14.3230 C   0  0  0  0  0  0  0  0  0  0  0  0
    1.5568  -49.4584  -13.5030 C   0  0  0  0  0  0  0  0  0  0  0  0
    0.1218  -49.7710  -13.8542 C   0  0  0  0  0  0  0  0  0  0  0  0
   -1.8529  -55.0958  -22.4311 C   0  0  0  0  0  0  0  0  0  0  0  0
   -0.7124  -54.8050  -21.6741 O   0  0  0  0  0  0  0  0  0  0  0  0
 41 42  1  0  0  0
 42 24  1  0  0  0
 24 25  2  0  0  0
 25 26  1  0  0  0
 26 27  2  0  0  0
 27 28  1  0  0  0
 28 29  2  0  0  0
 29  1  1  0  0  0
  1  3  1  0  0  0
  3  4  2  0  0  0
  4  5  1  0  0  0
  5  6  2  0  0  0
  6  7  1  0  0  0
  6  8  1  0  0  0
  8 10  1  0  0  0
 10 12  1  0  0  0
 12 13  2  0  0  0
 13 14  1  0  0  0
 14 15  2  0  0  0
 15 16  1  0  0  0
 16 17  2  0  0  0
 17 18  1  0  0  0
 18 19  2  0  0  0
 18 20  2  0  0  0
 18 21  1  0  0  0
 21 22  1  0  0  0
 21 23  1  0  0  0
  8  9  2  0  0  0
 26 30  1  0  0  0
 30 31  1  0  0  0
 31 32  1  0  0  0
 32 33  1  0  0  0
 33 34  1  0  0  0
 34 35  1  0  0  0
 33 36  1  0  0  0
 36 37  1  0  0  0
 37 38  1  0  0  0
 38 39  1  0  0  0
 39 40  1  0  0  0
 29 24  1  0  0  0
  9  3  1  0  0  0
 35 30  1  0  0  0
 40 36  1  0  0  0
 17 12  1  0  0  0
  1  2  1  0  0  0
 10 11  1  0  0  0
M  END
> <minimizedAffinity>
-7.33355

> <CNNscore>
0.1138731763

> <CNNaffinity>
7.0783462524

> <CNN_VS>
0.8060337901

> <CNNaffinity_variance>
0.3540119231

$$$$
[H]c1nc(N([H])c2c([H])c([H])c(N3C([H])([H])C([H])([H])C([H])(N4C([H])([H])C([H])([H])C([H])([H])C4([H])[H])C([H])([H])C3([H])[H])c([H])c2OC([H])([H])[H])nc(N([H])c2c([H])c([H])c([H])c([H])c2S(=O)(=O)C([H])(C([H])([H])[H])C([H])([H])[H])c1Cl


 42 46  0  0  0  0  0  0  0  0999 V2000
    1.2579  -52.8787  -23.5670 N   0  0  0  0  0  0  0  0  0  0  0  0
    1.0342  -53.7691  -24.1602 H   0  0  0  0  0  0  0  0  0  0  0  0
    0.6897  -52.9105  -22.2921 C   0  0  0  0  0  0  0  0  0  0  0  0
    0.0718  -53.9790  -21.8090 N   0  0  0  0  0  0  0  0  0  0  0  0
   -0.4811  -54.0206  -20.5941 C   0  0  0  0  0  0  0  0  0  0  0  0
   -0.3932  -52.8932  -19.8278 C   0  0  0  0  0  0  0  0  0  0  0  0
   -1.0899  -52.8770  -18.2268 Cl  0  0  0  0  0  0  0  0  0  0  0  0
    0.2535  -51.7359  -20.3004 C   0  0  0  0  0  0  0  0  0  0  0  0
    0.7551  -51.8208  -21.5071 N   0  0  0  0  0  0  0  0  0  0  0  0
    0.3113  -50.5660  -19.5230 N   0  0  0  0  0  0  0  0  0  0  0  0
   -0.4041  -50.5618  -18.7163 H   0  0  0  0  0  0  0  0  0  0  0  0
    1.1823  -49.4660  -19.6600 C   0  0  0  0  0  0  0  0  0  0  0  0
    1.4840  -48.8679  -20.8554 C   0  0  0  0  0  0  0  0  0  0  0  0
    2.4225  -47.8501  -21.0193 C   0  0  0  0  0  0  0  0  0  0  0  0
    3.0916  -47.4143  -19.9162 C   0  0  0  0  0  0  0  0  0  0  0  0
    2.8138  -47.9901  -18.7027 C   0  0  0  0  0  0  0  0  0  0  0  0
    1.8693  -49.0123  -18.5353 C   0  0  0  0  0  0  0  0  0  0  0  0
    1.5562  -49.5473  -16.9311 S   0  0  0  0  0  0  0  0  0  0  0  0
    1.6421  -51.0517  -16.7589 O   0  0  0  0  0  0  0  0  0  0  0  0
    2.7201  -49.0523  -16.0417 O   0  0  0  0  0  0  0  0  0  0  0  0
    0.1164  -48.8897  -16.1695 C   0  0  0  0  0  0  0  0  0  0  0  0
    0.2784  -48.0591  -14.9612 C   0  0  0  0  0  0  0  0  0  0  0  0
   -0.8224  -50.0609  -15.8837 C   0  0  0  0  0  0  0  0  0  0  0  0
    1.4869  -51.1999  -25.2747 C   0  0  0  0  0  0  0  0  0  0  0  0
    2.2214  -50.2324  -25.9227 C   0  0  0  0  0  0  0  0  0  0  0  0
    3.5081  -49.9297  -25.5315 C   0  0  0  0  0  0  0  0  0  0  0  0
    4.0860  -50.5957  -24.4760 C   0  0  0  0  0  0  0  0  0  0  0  0
    3.3262  -51.5761  -23.8280 C   0  0  0  0  0  0  0  0  0  0  0  0
    2.0550  -51.8981  -24.1900 C   0  0  0  0  0  0  0  0  0  0  0  0
    4.2877  -48.9440  -26.1892 N   0  0  0  0  0  0  0  0  0  0  0  0
    4.1324  -48.7085  -27.6293 C   0  0  0  0  0  0  0  0  0  0  0  0
    5.2596  -47.8470  -28.1461 C   0  0  0  0  0  0  0  0  0  0  0  0
    6.5944  -48.3918  -27.6470 C   0  0  0  0  0  0  0  0  0  0  0  0
    6.6164  -48.5104  -26.1640 C   0  0  0  0  0  0  0  0  0  0  0  0
    5.2710  -48.0949  -25.5493 C   0  0  0  0  0  0  0  0  0  0  0  0
    7.7081  -47.6819  -28.1902 N   0  0  0  0  0  0  0  0  0  0  0  0
    7.6717  -47.4345  -29.5826 C   0  0  0  0  0  0  0  0  0  0  0  0
    8.6325  -48.3874  -30.2636 C   0  0  0  0  0  0  0  0  0  0  0  0
    9.5074  -48.8662  -29.1364 C   0  0  0  0  0  0  0  0  0  0  0  0
    8.9762  -48.2359  -27.8712 C   0  0  0  0  0  0  0  0  0  0  0  0
   -0.0121  -52.1792  -26.8867 C   0  0  0  0  0  0  0  0  0  0  0  0
    0.2094  -51.4606  -25.7064 O   0  0  0  0  0  0  0  0  0  0  0  0
 41 42  1  0  0  0
 42 24  1  0  0  0
 24 25  2  0  0  0
 25 26  1  0  0  0
 26 27  2  0  0  0
 27 28  1  0  0  0
 28 29  2  0  0  0
 29  1  1  0  0  0
  1  3  1  0  0  0
  3  4  2  0  0  0
  4  5  1  0  0  0
  5  6  2  0  0  0
  6  7  1  0  0  0
  6  8  1  0  0  0
  8 10  1  0  0  0
 10 12  1  0  0  0
 12 13  2  0  0  0
 13 14  1  0  0  0
 14 15  2  0  0  0
 15 16  1  0  0  0
 16 17  2  0  0  0
 17 18  1  0  0  0
 18 19  2  0  0  0
 18 20  2  0  0  0
 18 21  1  0  0  0
 21 22  1  0  0  0
 21 23  1  0  0  0
  8  9  2  0  0  0
 26 30  1  0  0  0
 30 31  1  0  0  0
 31 32  1  0  0  0
 32 33  1  0  0  0
 33 34  1  0  0  0
 34 35  1  0  0  0
 33 36  1  0  0  0
 36 37  1  0  0  0
 37 38  1  0  0  0
 38 39  1  0  0  0
 39 40  1  0  0  0
 29 24  1  0  0  0
  9  3  1  0  0  0
 35 30  1  0  0  0
 40 36  1  0  0  0
 17 12  1  0  0  0
  1  2  1  0  0  0
 10 11  1  0  0  0
M  END
> <minimizedAffinity>
-6.83156

> <CNNscore>
0.1030642688

> <CNNaffinity>
6.9063081741

> <CNN_VS>
0.7117936015

> <CNNaffinity_variance>
0.3780388236

$$$$
[H]c1nc(N([H])c2c([H])c([H])c(N3C([H])([H])C([H])([H])C([H])(N4C([H])([H])C([H])([H])C([H])([H])C4([H])[H])C([H])([H])C3([H])[H])c([H])c2OC([H])([H])[H])nc(N([H])c2c([H])c([H])c([H])c([H])c2S(=O)(=O)C([H])(C([H])([H])[H])C([H])([H])[H])c1Cl


 42 46  0  0  0  0  0  0  0  0999 V2000
    5.2029  -51.6199  -24.7299 N   0  0  0  0  0  0  0  0  0  0  0  0
    5.8068  -52.2872  -25.3502 H   0  0  0  0  0  0  0  0  0  0  0  0
    3.8479  -51.6331  -25.0662 C   0  0  0  0  0  0  0  0  0  0  0  0
    3.4196  -51.7921  -26.3104 N   0  0  0  0  0  0  0  0  0  0  0  0
    2.1271  -51.8005  -26.6464 C   0  0  0  0  0  0  0  0  0  0  0  0
    1.2180  -51.6352  -25.6402 C   0  0  0  0  0  0  0  0  0  0  0  0
   -0.4895  -51.6399  -26.0054 Cl  0  0  0  0  0  0  0  0  0  0  0  0
    1.6279  -51.4630  -24.3049 C   0  0  0  0  0  0  0  0  0  0  0  0
    2.9221  -51.4734  -24.1044 N   0  0  0  0  0  0  0  0  0  0  0  0
    0.6911  -51.2578  -23.2770 N   0  0  0  0  0  0  0  0  0  0  0  0
    0.3438  -50.2385  -23.2224 H   0  0  0  0  0  0  0  0  0  0  0  0
    0.1606  -52.2021  -22.3746 C   0  0  0  0  0  0  0  0  0  0  0  0
   -0.4356  -53.3766  -22.7524 C   0  0  0  0  0  0  0  0  0  0  0  0
   -1.0577  -54.2679  -21.8793 C   0  0  0  0  0  0  0  0  0  0  0  0
   -1.0784  -53.9547  -20.5542 C   0  0  0  0  0  0  0  0  0  0  0  0
   -0.4899  -52.7869  -20.1404 C   0  0  0  0  0  0  0  0  0  0  0  0
    0.1377  -51.8903  -21.0163 C   0  0  0  0  0  0  0  0  0  0  0  0
    0.9274  -50.5280  -20.3244 S   0  0  0  0  0  0  0  0  0  0  0  0
    0.4421  -49.1974  -20.8668 O   0  0  0  0  0  0  0  0  0  0  0  0
    0.5001  -50.4485  -18.8406 O   0  0  0  0  0  0  0  0  0  0  0  0
    2.6814  -50.6036  -20.2689 C   0  0  0  0  0  0  0  0  0  0  0  0
    3.3282  -50.9730  -18.9956 C   0  0  0  0  0  0  0  0  0  0  0  0
    3.2106  -49.2565  -20.7590 C   0  0  0  0  0  0  0  0  0  0  0  0
    6.6362  -49.7739  -24.1598 C   0  0  0  0  0  0  0  0  0  0  0  0
    7.3325  -49.0301  -23.2338 C   0  0  0  0  0  0  0  0  0  0  0  0
    7.3188  -49.3600  -21.8954 C   0  0  0  0  0  0  0  0  0  0  0  0
    6.6016  -50.4488  -21.4576 C   0  0  0  0  0  0  0  0  0  0  0  0
    5.8993  -51.1942  -22.4112 C   0  0  0  0  0  0  0  0  0  0  0  0
    5.8931  -50.8951  -23.7383 C   0  0  0  0  0  0  0  0  0  0  0  0
    8.0355  -48.6148  -20.9242 N   0  0  0  0  0  0  0  0  0  0  0  0
    8.4460  -49.2369  -19.6601 C   0  0  0  0  0  0  0  0  0  0  0  0
    8.9139  -48.1848  -18.6835 C   0  0  0  0  0  0  0  0  0  0  0  0
    7.8997  -47.0464  -18.6280 C   0  0  0  0  0  0  0  0  0  0  0  0
    7.6402  -46.4790  -19.9788 C   0  0  0  0  0  0  0  0  0  0  0  0
    8.4312  -47.2285  -21.0621 C   0  0  0  0  0  0  0  0  0  0  0  0
    8.2332  -46.0694  -17.6413 N   0  0  0  0  0  0  0  0  0  0  0  0
    8.8421  -46.5569  -16.4610 C   0  0  0  0  0  0  0  0  0  0  0  0
    7.8116  -46.5452  -15.3506 C   0  0  0  0  0  0  0  0  0  0  0  0
    6.7419  -45.6263  -15.8763 C   0  0  0  0  0  0  0  0  0  0  0  0
    7.1618  -45.2156  -17.2675 C   0  0  0  0  0  0  0  0  0  0  0  0
    5.9142  -48.3291  -25.9474 C   0  0  0  0  0  0  0  0  0  0  0  0
    6.6848  -49.3999  -25.4803 O   0  0  0  0  0  0  0  0  0  0  0  0
 41 42  1  0  0  0
 42 24  1  0  0  0
 24 25  2  0  0  0
 25 26  1  0  0  0
 26 27  2  0  0  0
 27 28  1  0  0  0
 28 29  2  0  0  0
 29  1  1  0  0  0
  1  3  1  0  0  0
  3  4  2  0  0  0
  4  5  1  0  0  0
  5  6  2  0  0  0
  6  7  1  0  0  0
  6  8  1  0  0  0
  8 10  1  0  0  0
 10 12  1  0  0  0
 12 13  2  0  0  0
 13 14  1  0  0  0
 14 15  2  0  0  0
 15 16  1  0  0  0
 16 17  2  0  0  0
 17 18  1  0  0  0
 18 19  2  0  0  0
 18 20  2  0  0  0
 18 21  1  0  0  0
 21 22  1  0  0  0
 21 23  1  0  0  0
  8  9  2  0  0  0
 26 30  1  0  0  0
 30 31  1  0  0  0
 31 32  1  0  0  0
 32 33  1  0  0  0
 33 34  1  0  0  0
 34 35  1  0  0  0
 33 36  1  0  0  0
 36 37  1  0  0  0
 37 38  1  0  0  0
 38 39  1  0  0  0
 39 40  1  0  0  0
 29 24  1  0  0  0
  9  3  1  0  0  0
 35 30  1  0  0  0
 40 36  1  0  0  0
 17 12  1  0  0  0
  1  2  1  0  0  0
 10 11  1  0  0  0
M  END
> <minimizedAffinity>
-6.87274

> <CNNscore>
0.0978354588

> <CNNaffinity>
6.6646184921

> <CNN_VS>
0.6520360112

> <CNNaffinity_variance>
0.5844798088

$$$$
[H]c1nc(N([H])c2c([H])c([H])c(N3C([H])([H])C([H])([H])C([H])([H])[C@]([H])(N4C([H])([H])C([H])([H])C([H])([H])C4([H])[H])C3([H])[H])c([H])c2OC([H])([H])[H])nc(N([H])c2c([H])c([H])c([H])c([H])c2S(=O)(=O)C(C([H])([H])[H])(C([H])([H])[H])C([H])([H])[H])c1Cl


 43 47  0  0  0  0  0  0  0  0999 V2000
    0.4384  -51.4765  -20.6266 C   0  0  0  0  0  0  0  0  0  0  0  0
   -0.4348  -52.2760  -20.0064 N   0  0  0  0  0  0  0  0  0  0  0  0
   -0.9439  -53.3802  -20.5665 C   0  0  0  0  0  0  0  0  0  0  0  0
   -0.5874  -53.7580  -21.8353 C   0  0  0  0  0  0  0  0  0  0  0  0
   -1.2344  -55.1959  -22.5924 Cl  0  0  0  0  0  0  0  0  0  0  0  0
    0.3329  -52.9452  -22.5323 C   0  0  0  0  0  0  0  0  0  0  0  0
    0.7775  -51.8701  -21.8859 N   0  0  0  0  0  0  0  0  0  0  0  0
    1.0549  -50.3242  -20.1530 N   0  0  0  0  0  0  0  0  0  0  0  0
    0.8936  -50.1014  -19.1070 H   0  0  0  0  0  0  0  0  0  0  0  0
    3.2557  -49.5545  -20.7600 C   0  0  0  0  0  0  0  0  0  0  0  0
    4.0754  -48.6867  -21.3888 C   0  0  0  0  0  0  0  0  0  0  0  0
    3.5583  -47.6319  -22.1138 C   0  0  0  0  0  0  0  0  0  0  0  0
    2.1973  -47.4746  -22.1902 C   0  0  0  0  0  0  0  0  0  0  0  0
    1.3345  -48.3648  -21.5447 C   0  0  0  0  0  0  0  0  0  0  0  0
    1.8599  -49.4090  -20.8258 C   0  0  0  0  0  0  0  0  0  0  0  0
    4.3997  -46.6919  -22.7641 N   0  0  0  0  0  0  0  0  0  0  0  0
    5.5622  -46.2045  -22.0849 C   0  0  0  0  0  0  0  0  0  0  0  0
    6.4881  -45.3634  -22.8990 C   0  0  0  0  0  0  0  0  0  0  0  0
    5.8120  -44.6720  -24.0642 C   0  0  0  0  0  0  0  0  0  0  0  0
    5.1661  -45.7279  -24.8862 C   0  0  0  0  0  0  0  0  0  0  0  0
    4.0012  -46.2944  -24.1167 C   0  0  0  0  0  0  0  0  0  0  0  0
    4.7818  -45.3762  -26.2058 N   0  0  0  0  0  0  0  0  0  0  0  0
    5.0326  -46.3514  -27.2164 C   0  0  0  0  0  0  0  0  0  0  0  0
    3.7055  -46.6322  -27.8891 C   0  0  0  0  0  0  0  0  0  0  0  0
    2.9914  -45.3010  -27.7483 C   0  0  0  0  0  0  0  0  0  0  0  0
    3.4494  -44.8976  -26.3483 C   0  0  0  0  0  0  0  0  0  0  0  0
    4.0000  -50.5437  -18.6406 C   0  0  0  0  0  0  0  0  0  0  0  0
    3.7561  -50.6362  -20.0159 O   0  0  0  0  0  0  0  0  0  0  0  0
    0.7086  -53.3517  -23.8202 N   0  0  0  0  0  0  0  0  0  0  0  0
    1.5117  -54.0434  -23.8716 H   0  0  0  0  0  0  0  0  0  0  0  0
    0.1645  -52.9665  -25.0563 C   0  0  0  0  0  0  0  0  0  0  0  0
   -1.1900  -52.9268  -25.2934 C   0  0  0  0  0  0  0  0  0  0  0  0
   -1.6402  -52.5424  -26.5506 C   0  0  0  0  0  0  0  0  0  0  0  0
   -0.7829  -52.2038  -27.5570 C   0  0  0  0  0  0  0  0  0  0  0  0
    0.5975  -52.2362  -27.3430 C   0  0  0  0  0  0  0  0  0  0  0  0
    1.0476  -52.6151  -26.1029 C   0  0  0  0  0  0  0  0  0  0  0  0
    2.7677  -52.6485  -25.8466 S   0  0  0  0  0  0  0  0  0  0  0  0
    3.4764  -53.1234  -27.1078 O   0  0  0  0  0  0  0  0  0  0  0  0
    3.1195  -53.5366  -24.6646 O   0  0  0  0  0  0  0  0  0  0  0  0
    3.4671  -51.0615  -25.4780 C   0  0  0  0  0  0  0  0  0  0  0  0
    2.4362  -50.3152  -24.5944 C   0  0  0  0  0  0  0  0  0  0  0  0
    4.7125  -51.1191  -24.6566 C   0  0  0  0  0  0  0  0  0  0  0  0
    3.5997  -50.2514  -26.7519 C   0  0  0  0  0  0  0  0  0  0  0  0
 27 28  1  0  0  0
 28 10  1  0  0  0
 10 11  2  0  0  0
 11 12  1  0  0  0
 12 13  2  0  0  0
 13 14  1  0  0  0
 14 15  2  0  0  0
 15  8  1  0  0  0
  8  1  1  0  0  0
  1  2  2  0  0  0
  2  3  1  0  0  0
  3  4  2  0  0  0
  4  5  1  0  0  0
  4  6  1  0  0  0
  6 29  1  0  0  0
 29 31  1  0  0  0
 31 32  2  0  0  0
 32 33  1  0  0  0
 33 34  2  0  0  0
 34 35  1  0  0  0
 35 36  2  0  0  0
 36 37  1  0  0  0
 37 38  2  0  0  0
 37 39  2  0  0  0
 37 40  1  0  0  0
 40 41  1  0  0  0
 40 42  1  0  0  0
 40 43  1  0  0  0
  6  7  2  0  0  0
 12 16  1  0  0  0
 16 17  1  0  0  0
 17 18  1  0  0  0
 18 19  1  0  0  0
 19 20  1  0  0  0
 20 21  1  0  0  0
 20 22  1  0  0  0
 22 23  1  0  0  0
 23 24  1  0  0  0
 24 25  1  0  0  0
 25 26  1  0  0  0
 15 10  1  0  0  0
  7  1  1  0  0  0
 21 16  1  0  0  0
 26 22  1  0  0  0
 36 31  1  0  0  0
  8  9  1  0  0  0
 29 30  1  0  0  0
M  END
> <minimizedAffinity>
-7.31157

> <CNNscore>
0.1427883953

> <CNNaffinity>
7.3389043808

> <CNN_VS>
1.0479103327

> <CNNaffinity_variance>
0.4393382072

$$$$
[H]c1nc(N([H])c2c([H])c([H])c(N3C([H])([H])C([H])([H])C([H])([H])[C@]([H])(N4C([H])([H])C([H])([H])C([H])([H])C4([H])[H])C3([H])[H])c([H])c2OC([H])([H])[H])nc(N([H])c2c([H])c([H])c([H])c([H])c2S(=O)(=O)C(C([H])([H])[H])(C([H])([H])[H])C([H])([H])[H])c1Cl


 43 47  0  0  0  0  0  0  0  0999 V2000
    1.9907  -51.9531  -20.5016 C   0  0  0  0  0  0  0  0  0  0  0  0
    1.1795  -52.2481  -19.4812 N   0  0  0  0  0  0  0  0  0  0  0  0
   -0.0821  -52.6653  -19.6443 C   0  0  0  0  0  0  0  0  0  0  0  0
   -0.6205  -52.8160  -20.8962 C   0  0  0  0  0  0  0  0  0  0  0  0
   -2.2645  -53.3608  -21.1406 Cl  0  0  0  0  0  0  0  0  0  0  0  0
    0.1975  -52.5165  -22.0073 C   0  0  0  0  0  0  0  0  0  0  0  0
    1.4350  -52.1089  -21.7356 N   0  0  0  0  0  0  0  0  0  0  0  0
    3.3162  -51.5358  -20.4697 N   0  0  0  0  0  0  0  0  0  0  0  0
    3.8173  -51.6365  -19.5165 H   0  0  0  0  0  0  0  0  0  0  0  0
    4.0541  -49.6282  -21.7428 C   0  0  0  0  0  0  0  0  0  0  0  0
    4.7939  -49.0747  -22.7260 C   0  0  0  0  0  0  0  0  0  0  0  0
    5.6203  -49.8566  -23.5080 C   0  0  0  0  0  0  0  0  0  0  0  0
    5.6834  -51.2071  -23.2739 C   0  0  0  0  0  0  0  0  0  0  0  0
    4.9235  -51.7961  -22.2593 C   0  0  0  0  0  0  0  0  0  0  0  0
    4.1046  -51.0091  -21.4891 C   0  0  0  0  0  0  0  0  0  0  0  0
    6.3899  -49.3020  -24.5637 N   0  0  0  0  0  0  0  0  0  0  0  0
    7.7972  -49.5615  -24.6163 C   0  0  0  0  0  0  0  0  0  0  0  0
    8.5000  -49.0974  -25.8484 C   0  0  0  0  0  0  0  0  0  0  0  0
    7.8046  -47.9470  -26.5455 C   0  0  0  0  0  0  0  0  0  0  0  0
    6.4163  -48.3872  -26.8402 C   0  0  0  0  0  0  0  0  0  0  0  0
    5.6578  -48.4947  -25.5429 C   0  0  0  0  0  0  0  0  0  0  0  0
    5.6872  -47.6328  -27.7952 N   0  0  0  0  0  0  0  0  0  0  0  0
    4.4195  -48.1613  -28.1811 C   0  0  0  0  0  0  0  0  0  0  0  0
    3.3954  -47.0806  -27.9056 C   0  0  0  0  0  0  0  0  0  0  0  0
    4.2077  -45.8155  -28.1095 C   0  0  0  0  0  0  0  0  0  0  0  0
    5.5380  -46.2494  -27.4978 C   0  0  0  0  0  0  0  0  0  0  0  0
    3.6031  -47.6222  -20.4024 C   0  0  0  0  0  0  0  0  0  0  0  0
    3.2055  -48.8551  -20.9328 O   0  0  0  0  0  0  0  0  0  0  0  0
   -0.3543  -52.6952  -23.2835 N   0  0  0  0  0  0  0  0  0  0  0  0
   -0.8086  -51.8390  -23.7155 H   0  0  0  0  0  0  0  0  0  0  0  0
   -0.3876  -53.8575  -24.0709 C   0  0  0  0  0  0  0  0  0  0  0  0
   -0.7845  -55.0792  -23.5783 C   0  0  0  0  0  0  0  0  0  0  0  0
   -0.7774  -56.1794  -24.4271 C   0  0  0  0  0  0  0  0  0  0  0  0
   -0.3893  -56.0875  -25.7322 C   0  0  0  0  0  0  0  0  0  0  0  0
    0.0190  -54.8588  -26.2576 C   0  0  0  0  0  0  0  0  0  0  0  0
    0.0138  -53.7688  -25.4236 C   0  0  0  0  0  0  0  0  0  0  0  0
    0.5206  -52.2437  -26.0891 S   0  0  0  0  0  0  0  0  0  0  0  0
   -0.3993  -51.1301  -25.6074 O   0  0  0  0  0  0  0  0  0  0  0  0
    0.5476  -52.3005  -27.6075 O   0  0  0  0  0  0  0  0  0  0  0  0
    2.1533  -51.7563  -25.5989 C   0  0  0  0  0  0  0  0  0  0  0  0
    2.9153  -51.3856  -26.8960 C   0  0  0  0  0  0  0  0  0  0  0  0
    2.1956  -50.5231  -24.7584 C   0  0  0  0  0  0  0  0  0  0  0  0
    2.8842  -52.9415  -25.0011 C   0  0  0  0  0  0  0  0  0  0  0  0
 27 28  1  0  0  0
 28 10  1  0  0  0
 10 11  2  0  0  0
 11 12  1  0  0  0
 12 13  2  0  0  0
 13 14  1  0  0  0
 14 15  2  0  0  0
 15  8  1  0  0  0
  8  1  1  0  0  0
  1  2  2  0  0  0
  2  3  1  0  0  0
  3  4  2  0  0  0
  4  5  1  0  0  0
  4  6  1  0  0  0
  6 29  1  0  0  0
 29 31  1  0  0  0
 31 32  2  0  0  0
 32 33  1  0  0  0
 33 34  2  0  0  0
 34 35  1  0  0  0
 35 36  2  0  0  0
 36 37  1  0  0  0
 37 38  2  0  0  0
 37 39  2  0  0  0
 37 40  1  0  0  0
 40 41  1  0  0  0
 40 42  1  0  0  0
 40 43  1  0  0  0
  6  7  2  0  0  0
 12 16  1  0  0  0
 16 17  1  0  0  0
 17 18  1  0  0  0
 18 19  1  0  0  0
 19 20  1  0  0  0
 20 21  1  0  0  0
 20 22  1  0  0  0
 22 23  1  0  0  0
 23 24  1  0  0  0
 24 25  1  0  0  0
 25 26  1  0  0  0
 15 10  1  0  0  0
  7  1  1  0  0  0
 21 16  1  0  0  0
 26 22  1  0  0  0
 36 31  1  0  0  0
  8  9  1  0  0  0
 29 30  1  0  0  0
M  END
> <minimizedAffinity>
-7.11527

> <CNNscore>
0.1223137155

> <CNNaffinity>
6.9707055092

> <CNN_VS>
0.8526129127

> <CNNaffinity_variance>
0.9482215643

$$$$
[H]c1nc(N([H])c2c([H])c([H])c(N3C([H])([H])C([H])([H])C([H])([H])[C@]([H])(N4C([H])([H])C([H])([H])C([H])([H])C4([H])[H])C3([H])[H])c([H])c2OC([H])([H])[H])nc(N([H])c2c([H])c([H])c([H])c([H])c2S(=O)(=O)C(C([H])([H])[H])(C([H])([H])[H])C([H])([H])[H])c1Cl


 43 47  0  0  0  0  0  0  0  0999 V2000
    0.3769  -51.6555  -20.0975 C   0  0  0  0  0  0  0  0  0  0  0  0
   -0.5169  -52.5280  -19.6221 N   0  0  0  0  0  0  0  0  0  0  0  0
   -0.9663  -53.5743  -20.3260 C   0  0  0  0  0  0  0  0  0  0  0  0
   -0.5223  -53.8115  -21.6013 C   0  0  0  0  0  0  0  0  0  0  0  0
   -1.0898  -55.1708  -22.5445 Cl  0  0  0  0  0  0  0  0  0  0  0  0
    0.4230  -52.9169  -22.1486 C   0  0  0  0  0  0  0  0  0  0  0  0
    0.8032  -51.9096  -21.3662 N   0  0  0  0  0  0  0  0  0  0  0  0
    0.9379  -50.5507  -19.4674 N   0  0  0  0  0  0  0  0  0  0  0  0
    0.4256  -50.2063  -18.5794 H   0  0  0  0  0  0  0  0  0  0  0  0
    3.2950  -50.1357  -19.1918 C   0  0  0  0  0  0  0  0  0  0  0  0
    4.4184  -49.4474  -19.4825 C   0  0  0  0  0  0  0  0  0  0  0  0
    4.3909  -48.4110  -20.3941 C   0  0  0  0  0  0  0  0  0  0  0  0
    3.2057  -48.0873  -21.0051 C   0  0  0  0  0  0  0  0  0  0  0  0
    2.0330  -48.7906  -20.7150 C   0  0  0  0  0  0  0  0  0  0  0  0
    2.0722  -49.8180  -19.8062 C   0  0  0  0  0  0  0  0  0  0  0  0
    5.5536  -47.6564  -20.6990 N   0  0  0  0  0  0  0  0  0  0  0  0
    6.8040  -48.3333  -20.8685 C   0  0  0  0  0  0  0  0  0  0  0  0
    7.9364  -47.4966  -21.3633 C   0  0  0  0  0  0  0  0  0  0  0  0
    7.7848  -46.0236  -21.0467 C   0  0  0  0  0  0  0  0  0  0  0  0
    6.4869  -45.5828  -21.6205 C   0  0  0  0  0  0  0  0  0  0  0  0
    5.3700  -46.2084  -20.8261 C   0  0  0  0  0  0  0  0  0  0  0  0
    6.2859  -44.1862  -21.7687 N   0  0  0  0  0  0  0  0  0  0  0  0
    7.3700  -43.3479  -21.3721 C   0  0  0  0  0  0  0  0  0  0  0  0
    7.7219  -42.4946  -22.5723 C   0  0  0  0  0  0  0  0  0  0  0  0
    6.3816  -42.3629  -23.2709 C   0  0  0  0  0  0  0  0  0  0  0  0
    5.8234  -43.7667  -23.0472 C   0  0  0  0  0  0  0  0  0  0  0  0
    3.5496  -50.9935  -16.9063 C   0  0  0  0  0  0  0  0  0  0  0  0
    3.2959  -51.1945  -18.2682 O   0  0  0  0  0  0  0  0  0  0  0  0
    0.8879  -53.1802  -23.4445 N   0  0  0  0  0  0  0  0  0  0  0  0
    1.7903  -53.7349  -23.5089 H   0  0  0  0  0  0  0  0  0  0  0  0
    0.3197  -52.8084  -24.6737 C   0  0  0  0  0  0  0  0  0  0  0  0
   -1.0385  -52.7965  -24.8928 C   0  0  0  0  0  0  0  0  0  0  0  0
   -1.5131  -52.4236  -26.1444 C   0  0  0  0  0  0  0  0  0  0  0  0
   -0.6764  -52.0696  -27.1627 C   0  0  0  0  0  0  0  0  0  0  0  0
    0.7071  -52.0737  -26.9672 C   0  0  0  0  0  0  0  0  0  0  0  0
    1.1814  -52.4411  -25.7327 C   0  0  0  0  0  0  0  0  0  0  0  0
    2.9051  -52.4392  -25.4994 S   0  0  0  0  0  0  0  0  0  0  0  0
    3.6033  -52.9639  -26.7466 O   0  0  0  0  0  0  0  0  0  0  0  0
    3.2852  -53.2654  -24.2819 O   0  0  0  0  0  0  0  0  0  0  0  0
    3.5870  -50.8272  -25.2163 C   0  0  0  0  0  0  0  0  0  0  0  0
    2.6723  -50.1336  -24.1757 C   0  0  0  0  0  0  0  0  0  0  0  0
    4.9437  -50.8392  -24.5933 C   0  0  0  0  0  0  0  0  0  0  0  0
    3.4919  -50.0007  -26.4828 C   0  0  0  0  0  0  0  0  0  0  0  0
 27 28  1  0  0  0
 28 10  1  0  0  0
 10 11  2  0  0  0
 11 12  1  0  0  0
 12 13  2  0  0  0
 13 14  1  0  0  0
 14 15  2  0  0  0
 15  8  1  0  0  0
  8  1  1  0  0  0
  1  2  2  0  0  0
  2  3  1  0  0  0
  3  4  2  0  0  0
  4  5  1  0  0  0
  4  6  1  0  0  0
  6 29  1  0  0  0
 29 31  1  0  0  0
 31 32  2  0  0  0
 32 33  1  0  0  0
 33 34  2  0  0  0
 34 35  1  0  0  0
 35 36  2  0  0  0
 36 37  1  0  0  0
 37 38  2  0  0  0
 37 39  2  0  0  0
 37 40  1  0  0  0
 40 41  1  0  0  0
 40 42  1  0  0  0
 40 43  1  0  0  0
  6  7  2  0  0  0
 12 16  1  0  0  0
 16 17  1  0  0  0
 17 18  1  0  0  0
 18 19  1  0  0  0
 19 20  1  0  0  0
 20 21  1  0  0  0
 20 22  1  0  0  0
 22 23  1  0  0  0
 23 24  1  0  0  0
 24 25  1  0  0  0
 25 26  1  0  0  0
 15 10  1  0  0  0
  7  1  1  0  0  0
 21 16  1  0  0  0
 26 22  1  0  0  0
 36 31  1  0  0  0
  8  9  1  0  0  0
 29 30  1  0  0  0
M  END
> <minimizedAffinity>
-7.00264

> <CNNscore>
0.1063059941

> <CNNaffinity>
7.0921640396

> <CNN_VS>
0.7539395690

> <CNNaffinity_variance>
0.2364726067

$$$$
[H]c1nc(N([H])c2c([H])c([H])c(N3C([H])([H])C([H])([H])C([H])([H])[C@]([H])(N4C([H])([H])C([H])([H])C([H])([H])C4([H])[H])C3([H])[H])c([H])c2OC([H])([H])[H])nc(N([H])c2c([H])c([H])c([H])c([H])c2S(=O)(=O)C(C([H])([H])[H])(C([H])([H])[H])C([H])([H])[H])c1Cl


 43 47  0  0  0  0  0  0  0  0999 V2000
   -0.1452  -51.9734  -20.3022 C   0  0  0  0  0  0  0  0  0  0  0  0
   -1.0043  -52.9295  -19.9363 N   0  0  0  0  0  0  0  0  0  0  0  0
   -1.3212  -53.9689  -20.7183 C   0  0  0  0  0  0  0  0  0  0  0  0
   -0.7675  -54.1106  -21.9645 C   0  0  0  0  0  0  0  0  0  0  0  0
   -1.1608  -55.4583  -23.0077 Cl  0  0  0  0  0  0  0  0  0  0  0  0
    0.1466  -53.1253  -22.3969 C   0  0  0  0  0  0  0  0  0  0  0  0
    0.3917  -52.1335  -21.5439 N   0  0  0  0  0  0  0  0  0  0  0  0
    0.2837  -50.8641  -19.5825 N   0  0  0  0  0  0  0  0  0  0  0  0
   -0.0772  -50.7962  -18.5653 H   0  0  0  0  0  0  0  0  0  0  0  0
    2.3138  -49.6056  -19.2673 C   0  0  0  0  0  0  0  0  0  0  0  0
    3.1502  -48.6025  -19.6059 C   0  0  0  0  0  0  0  0  0  0  0  0
    2.8493  -47.7628  -20.6596 C   0  0  0  0  0  0  0  0  0  0  0  0
    1.6876  -47.9598  -21.3628 C   0  0  0  0  0  0  0  0  0  0  0  0
    0.8105  -48.9943  -21.0248 C   0  0  0  0  0  0  0  0  0  0  0  0
    1.1194  -49.8219  -19.9746 C   0  0  0  0  0  0  0  0  0  0  0  0
    3.7007  -46.6860  -21.0202 N   0  0  0  0  0  0  0  0  0  0  0  0
    3.4538  -45.9750  -22.2383 C   0  0  0  0  0  0  0  0  0  0  0  0
    4.2762  -44.7487  -22.4555 C   0  0  0  0  0  0  0  0  0  0  0  0
    5.5970  -44.7661  -21.7151 C   0  0  0  0  0  0  0  0  0  0  0  0
    5.2904  -44.9719  -20.2757 C   0  0  0  0  0  0  0  0  0  0  0  0
    4.7861  -46.3787  -20.0854 C   0  0  0  0  0  0  0  0  0  0  0  0
    6.3180  -44.6692  -19.3455 N   0  0  0  0  0  0  0  0  0  0  0  0
    6.9306  -43.3875  -19.4781 C   0  0  0  0  0  0  0  0  0  0  0  0
    6.7799  -42.6929  -18.1412 C   0  0  0  0  0  0  0  0  0  0  0  0
    6.7908  -43.8619  -17.1741 C   0  0  0  0  0  0  0  0  0  0  0  0
    5.9882  -44.8826  -17.9780 C   0  0  0  0  0  0  0  0  0  0  0  0
    3.7971  -50.4062  -17.4832 C   0  0  0  0  0  0  0  0  0  0  0  0
    2.5964  -50.4741  -18.1996 O   0  0  0  0  0  0  0  0  0  0  0  0
    0.7246  -53.2906  -23.6633 N   0  0  0  0  0  0  0  0  0  0  0  0
    1.6733  -53.7658  -23.6807 H   0  0  0  0  0  0  0  0  0  0  0  0
    0.2170  -52.9113  -24.9165 C   0  0  0  0  0  0  0  0  0  0  0  0
   -1.1271  -52.9221  -25.2095 C   0  0  0  0  0  0  0  0  0  0  0  0
   -1.5401  -52.5397  -26.4800 C   0  0  0  0  0  0  0  0  0  0  0  0
   -0.6563  -52.1546  -27.4459 C   0  0  0  0  0  0  0  0  0  0  0  0
    0.7143  -52.1352  -27.1748 C   0  0  0  0  0  0  0  0  0  0  0  0
    1.1277  -52.5119  -25.9214 C   0  0  0  0  0  0  0  0  0  0  0  0
    2.8358  -52.4805  -25.5940 S   0  0  0  0  0  0  0  0  0  0  0  0
    3.6123  -52.9519  -26.8159 O   0  0  0  0  0  0  0  0  0  0  0  0
    3.1681  -53.3354  -24.3822 O   0  0  0  0  0  0  0  0  0  0  0  0
    3.4643  -50.8639  -25.2265 C   0  0  0  0  0  0  0  0  0  0  0  0
    4.8944  -51.0598  -24.6635 C   0  0  0  0  0  0  0  0  0  0  0  0
    3.6353  -49.9888  -26.4239 C   0  0  0  0  0  0  0  0  0  0  0  0
    2.6508  -50.2391  -24.1110 C   0  0  0  0  0  0  0  0  0  0  0  0
 27 28  1  0  0  0
 28 10  1  0  0  0
 10 11  2  0  0  0
 11 12  1  0  0  0
 12 13  2  0  0  0
 13 14  1  0  0  0
 14 15  2  0  0  0
 15  8  1  0  0  0
  8  1  1  0  0  0
  1  2  2  0  0  0
  2  3  1  0  0  0
  3  4  2  0  0  0
  4  5  1  0  0  0
  4  6  1  0  0  0
  6 29  1  0  0  0
 29 31  1  0  0  0
 31 32  2  0  0  0
 32 33  1  0  0  0
 33 34  2  0  0  0
 34 35  1  0  0  0
 35 36  2  0  0  0
 36 37  1  0  0  0
 37 38  2  0  0  0
 37 39  2  0  0  0
 37 40  1  0  0  0
 40 41  1  0  0  0
 40 42  1  0  0  0
 40 43  1  0  0  0
  6  7  2  0  0  0
 12 16  1  0  0  0
 16 17  1  0  0  0
 17 18  1  0  0  0
 18 19  1  0  0  0
 19 20  1  0  0  0
 20 21  1  0  0  0
 20 22  1  0  0  0
 22 23  1  0  0  0
 23 24  1  0  0  0
 24 25  1  0  0  0
 25 26  1  0  0  0
 15 10  1  0  0  0
  7  1  1  0  0  0
 21 16  1  0  0  0
 26 22  1  0  0  0
 36 31  1  0  0  0
  8  9  1  0  0  0
 29 30  1  0  0  0
M  END
> <minimizedAffinity>
-7.17081

> <CNNscore>
0.0971581116

> <CNNaffinity>
7.0020880699

> <CNN_VS>
0.6803096533

> <CNNaffinity_variance>
0.2302047759

$$$$
[H]c1nc(N([H])c2c([H])c([H])c(N3C([H])([H])C([H])([H])C([H])([H])[C@]([H])(N4C([H])([H])C([H])([H])C([H])([H])C4([H])[H])C3([H])[H])c([H])c2OC([H])([H])[H])nc(N([H])c2c([H])c([H])c([H])c([H])c2S(=O)(=O)C(C([H])([H])[H])(C([H])([H])[H])C([H])([H])[H])c1Cl


 43 47  0  0  0  0  0  0  0  0999 V2000
    0.5674  -51.8103  -19.7049 C   0  0  0  0  0  0  0  0  0  0  0  0
   -0.2421  -52.8534  -19.4979 N   0  0  0  0  0  0  0  0  0  0  0  0
   -0.6306  -53.6849  -20.4727 C   0  0  0  0  0  0  0  0  0  0  0  0
   -0.2078  -53.5060  -21.7646 C   0  0  0  0  0  0  0  0  0  0  0  0
   -0.6970  -54.5766  -23.0584 Cl  0  0  0  0  0  0  0  0  0  0  0  0
    0.6493  -52.4169  -22.0342 C   0  0  0  0  0  0  0  0  0  0  0  0
    0.9740  -51.6510  -20.9953 N   0  0  0  0  0  0  0  0  0  0  0  0
    1.0602  -50.8926  -18.7846 N   0  0  0  0  0  0  0  0  0  0  0  0
    0.6405  -50.9537  -17.7897 H   0  0  0  0  0  0  0  0  0  0  0  0
    3.2774  -50.0642  -18.3346 C   0  0  0  0  0  0  0  0  0  0  0  0
    4.2396  -49.1268  -18.4598 C   0  0  0  0  0  0  0  0  0  0  0  0
    4.0133  -47.9825  -19.1982 C   0  0  0  0  0  0  0  0  0  0  0  0
    2.7961  -47.8077  -19.8071 C   0  0  0  0  0  0  0  0  0  0  0  0
    1.7888  -48.7694  -19.6873 C   0  0  0  0  0  0  0  0  0  0  0  0
    2.0247  -49.9022  -18.9497 C   0  0  0  0  0  0  0  0  0  0  0  0
    5.0006  -46.9708  -19.3251 N   0  0  0  0  0  0  0  0  0  0  0  0
    5.0073  -46.1405  -20.4917 C   0  0  0  0  0  0  0  0  0  0  0  0
    5.9570  -44.9894  -20.4671 C   0  0  0  0  0  0  0  0  0  0  0  0
    7.1411  -45.2006  -19.5473 C   0  0  0  0  0  0  0  0  0  0  0  0
    6.5996  -45.4925  -18.1947 C   0  0  0  0  0  0  0  0  0  0  0  0
    5.9515  -46.8524  -18.2168 C   0  0  0  0  0  0  0  0  0  0  0  0
    7.4939  -45.3726  -17.0999 N   0  0  0  0  0  0  0  0  0  0  0  0
    6.9246  -44.9388  -15.8657 C   0  0  0  0  0  0  0  0  0  0  0  0
    7.2590  -45.9977  -14.8364 C   0  0  0  0  0  0  0  0  0  0  0  0
    8.5827  -46.5320  -15.3505 C   0  0  0  0  0  0  0  0  0  0  0  0
    8.3162  -46.5074  -16.8540 C   0  0  0  0  0  0  0  0  0  0  0  0
    3.7290  -51.2100  -16.2116 C   0  0  0  0  0  0  0  0  0  0  0  0
    3.4820  -51.2375  -17.5891 O   0  0  0  0  0  0  0  0  0  0  0  0
    1.0943  -52.2553  -23.3536 N   0  0  0  0  0  0  0  0  0  0  0  0
    0.7614  -52.9862  -24.0473 H   0  0  0  0  0  0  0  0  0  0  0  0
    1.9237  -51.2539  -23.8841 C   0  0  0  0  0  0  0  0  0  0  0  0
    2.1909  -50.0793  -23.2197 C   0  0  0  0  0  0  0  0  0  0  0  0
    3.0161  -49.1389  -23.8246 C   0  0  0  0  0  0  0  0  0  0  0  0
    3.5690  -49.3425  -25.0555 C   0  0  0  0  0  0  0  0  0  0  0  0
    3.3133  -50.5264  -25.7521 C   0  0  0  0  0  0  0  0  0  0  0  0
    2.4990  -51.4588  -25.1592 C   0  0  0  0  0  0  0  0  0  0  0  0
    2.1905  -52.9304  -26.0338 S   0  0  0  0  0  0  0  0  0  0  0  0
    2.1108  -54.1061  -25.0696 O   0  0  0  0  0  0  0  0  0  0  0  0
    3.2622  -53.1677  -27.0847 O   0  0  0  0  0  0  0  0  0  0  0  0
    0.6502  -52.9312  -26.9119 C   0  0  0  0  0  0  0  0  0  0  0  0
   -0.0459  -54.2770  -26.5882 C   0  0  0  0  0  0  0  0  0  0  0  0
   -0.3096  -51.8800  -26.4618 C   0  0  0  0  0  0  0  0  0  0  0  0
    0.9112  -52.9366  -28.4047 C   0  0  0  0  0  0  0  0  0  0  0  0
 27 28  1  0  0  0
 28 10  1  0  0  0
 10 11  2  0  0  0
 11 12  1  0  0  0
 12 13  2  0  0  0
 13 14  1  0  0  0
 14 15  2  0  0  0
 15  8  1  0  0  0
  8  1  1  0  0  0
  1  2  2  0  0  0
  2  3  1  0  0  0
  3  4  2  0  0  0
  4  5  1  0  0  0
  4  6  1  0  0  0
  6 29  1  0  0  0
 29 31  1  0  0  0
 31 32  2  0  0  0
 32 33  1  0  0  0
 33 34  2  0  0  0
 34 35  1  0  0  0
 35 36  2  0  0  0
 36 37  1  0  0  0
 37 38  2  0  0  0
 37 39  2  0  0  0
 37 40  1  0  0  0
 40 41  1  0  0  0
 40 42  1  0  0  0
 40 43  1  0  0  0
  6  7  2  0  0  0
 12 16  1  0  0  0
 16 17  1  0  0  0
 17 18  1  0  0  0
 18 19  1  0  0  0
 19 20  1  0  0  0
 20 21  1  0  0  0
 20 22  1  0  0  0
 22 23  1  0  0  0
 23 24  1  0  0  0
 24 25  1  0  0  0
 25 26  1  0  0  0
 15 10  1  0  0  0
  7  1  1  0  0  0
 21 16  1  0  0  0
 26 22  1  0  0  0
 36 31  1  0  0  0
  8  9  1  0  0  0
 29 30  1  0  0  0
M  END
> <minimizedAffinity>
-7.20431

> <CNNscore>
0.0922387093

> <CNNaffinity>
7.1154594421

> <CNN_VS>
0.6563208103

> <CNNaffinity_variance>
0.0612136833

$$$$
[H]c1nc(N([H])c2c([H])c([H])c(N3C([H])([H])C([H])([H])C([H])([H])[C@]([H])(N4C([H])([H])C([H])([H])C([H])([H])C4([H])[H])C3([H])[H])c([H])c2OC([H])([H])[H])nc(N([H])c2c([H])c([H])c([H])c([H])c2S(=O)(=O)C(C([H])([H])[H])(C([H])([H])[H])C([H])([H])[H])c1Cl


 43 47  0  0  0  0  0  0  0  0999 V2000
    2.8109  -48.5778  -22.8178 C   0  0  0  0  0  0  0  0  0  0  0  0
    1.9560  -48.0135  -21.9593 N   0  0  0  0  0  0  0  0  0  0  0  0
    1.1049  -48.7174  -21.2027 C   0  0  0  0  0  0  0  0  0  0  0  0
    1.0651  -50.0862  -21.2701 C   0  0  0  0  0  0  0  0  0  0  0  0
   -0.0345  -51.0325  -20.2931 Cl  0  0  0  0  0  0  0  0  0  0  0  0
    1.9495  -50.7294  -22.1632 C   0  0  0  0  0  0  0  0  0  0  0  0
    2.7534  -49.9378  -22.8693 N   0  0  0  0  0  0  0  0  0  0  0  0
    3.7538  -47.9683  -23.6373 N   0  0  0  0  0  0  0  0  0  0  0  0
    4.6300  -47.5795  -23.1364 H   0  0  0  0  0  0  0  0  0  0  0  0
    3.4480  -46.5136  -25.5333 C   0  0  0  0  0  0  0  0  0  0  0  0
    3.4182  -46.2925  -26.8639 C   0  0  0  0  0  0  0  0  0  0  0  0
    3.6786  -47.3169  -27.7520 C   0  0  0  0  0  0  0  0  0  0  0  0
    3.9705  -48.5667  -27.2664 C   0  0  0  0  0  0  0  0  0  0  0  0
    4.0054  -48.8122  -25.8908 C   0  0  0  0  0  0  0  0  0  0  0  0
    3.7437  -47.7865  -25.0176 C   0  0  0  0  0  0  0  0  0  0  0  0
    3.6298  -47.1156  -29.1561 N   0  0  0  0  0  0  0  0  0  0  0  0
    2.5966  -46.2939  -29.7107 C   0  0  0  0  0  0  0  0  0  0  0  0
    2.7199  -45.9850  -31.1657 C   0  0  0  0  0  0  0  0  0  0  0  0
    3.5155  -47.0159  -31.9385 C   0  0  0  0  0  0  0  0  0  0  0  0
    4.8466  -47.1219  -31.2866 C   0  0  0  0  0  0  0  0  0  0  0  0
    4.6749  -47.7775  -29.9410 C   0  0  0  0  0  0  0  0  0  0  0  0
    5.8825  -47.7459  -32.0284 N   0  0  0  0  0  0  0  0  0  0  0  0
    7.0811  -46.9902  -32.1955 C   0  0  0  0  0  0  0  0  0  0  0  0
    8.2106  -47.8407  -31.6539 C   0  0  0  0  0  0  0  0  0  0  0  0
    7.7072  -49.2459  -31.9256 C   0  0  0  0  0  0  0  0  0  0  0  0
    6.2231  -49.0639  -31.6148 C   0  0  0  0  0  0  0  0  0  0  0  0
    1.9116  -44.9328  -24.4541 C   0  0  0  0  0  0  0  0  0  0  0  0
    3.1870  -45.4886  -24.6084 O   0  0  0  0  0  0  0  0  0  0  0  0
    1.9173  -52.1301  -22.2088 N   0  0  0  0  0  0  0  0  0  0  0  0
    2.8570  -52.6175  -22.1355 H   0  0  0  0  0  0  0  0  0  0  0  0
    0.8062  -52.9791  -22.3386 C   0  0  0  0  0  0  0  0  0  0  0  0
    0.2031  -53.5859  -21.2612 C   0  0  0  0  0  0  0  0  0  0  0  0
   -0.8867  -54.4189  -21.4835 C   0  0  0  0  0  0  0  0  0  0  0  0
   -1.3774  -54.6548  -22.7349 C   0  0  0  0  0  0  0  0  0  0  0  0
   -0.7831  -54.0516  -23.8464 C   0  0  0  0  0  0  0  0  0  0  0  0
    0.2936  -53.2277  -23.6325 C   0  0  0  0  0  0  0  0  0  0  0  0
    1.0232  -52.4793  -25.0229 S   0  0  0  0  0  0  0  0  0  0  0  0
    2.5105  -52.8018  -25.0716 O   0  0  0  0  0  0  0  0  0  0  0  0
    0.7985  -50.9764  -25.0063 O   0  0  0  0  0  0  0  0  0  0  0  0
    0.3639  -53.0451  -26.5685 C   0  0  0  0  0  0  0  0  0  0  0  0
    0.2843  -54.5898  -26.4796 C   0  0  0  0  0  0  0  0  0  0  0  0
   -1.0358  -52.5992  -26.8348 C   0  0  0  0  0  0  0  0  0  0  0  0
    1.3387  -52.7339  -27.6862 C   0  0  0  0  0  0  0  0  0  0  0  0
 27 28  1  0  0  0
 28 10  1  0  0  0
 10 11  2  0  0  0
 11 12  1  0  0  0
 12 13  2  0  0  0
 13 14  1  0  0  0
 14 15  2  0  0  0
 15  8  1  0  0  0
  8  1  1  0  0  0
  1  2  2  0  0  0
  2  3  1  0  0  0
  3  4  2  0  0  0
  4  5  1  0  0  0
  4  6  1  0  0  0
  6 29  1  0  0  0
 29 31  1  0  0  0
 31 32  2  0  0  0
 32 33  1  0  0  0
 33 34  2  0  0  0
 34 35  1  0  0  0
 35 36  2  0  0  0
 36 37  1  0  0  0
 37 38  2  0  0  0
 37 39  2  0  0  0
 37 40  1  0  0  0
 40 41  1  0  0  0
 40 42  1  0  0  0
 40 43  1  0  0  0
  6  7  2  0  0  0
 12 16  1  0  0  0
 16 17  1  0  0  0
 17 18  1  0  0  0
 18 19  1  0  0  0
 19 20  1  0  0  0
 20 21  1  0  0  0
 20 22  1  0  0  0
 22 23  1  0  0  0
 23 24  1  0  0  0
 24 25  1  0  0  0
 25 26  1  0  0  0
 15 10  1  0  0  0
  7  1  1  0  0  0
 21 16  1  0  0  0
 26 22  1  0  0  0
 36 31  1  0  0  0
  8  9  1  0  0  0
 29 30  1  0  0  0
M  END
> <minimizedAffinity>
-8.58439

> <CNNscore>
0.0882581174

> <CNNaffinity>
6.7747178078

> <CNN_VS>
0.5979238153

> <CNNaffinity_variance>
0.8266144991

$$$$
[H]c1nc(N([H])c2c([H])c([H])c(N3C([H])([H])C([H])([H])C([H])([H])[C@]([H])(N4C([H])([H])C([H])([H])C([H])([H])C4([H])[H])C3([H])[H])c([H])c2OC([H])([H])[H])nc(N([H])c2c([H])c([H])c([H])c([H])c2S(=O)(=O)C(C([H])([H])[H])(C([H])([H])[H])C([H])([H])[H])c1Cl


 43 47  0  0  0  0  0  0  0  0999 V2000
    0.2024  -52.4741  -20.0699 C   0  0  0  0  0  0  0  0  0  0  0  0
   -0.8199  -53.2819  -19.7725 N   0  0  0  0  0  0  0  0  0  0  0  0
   -1.4051  -54.0848  -20.6699 C   0  0  0  0  0  0  0  0  0  0  0  0
   -0.9756  -54.1218  -21.9714 C   0  0  0  0  0  0  0  0  0  0  0  0
   -1.7190  -55.1614  -23.1655 Cl  0  0  0  0  0  0  0  0  0  0  0  0
    0.1024  -53.2857  -22.3351 C   0  0  0  0  0  0  0  0  0  0  0  0
    0.6118  -52.5262  -21.3682 N   0  0  0  0  0  0  0  0  0  0  0  0
    0.9080  -51.6162  -19.2341 N   0  0  0  0  0  0  0  0  0  0  0  0
    1.0003  -51.9344  -18.2046 H   0  0  0  0  0  0  0  0  0  0  0  0
    2.7836  -50.1278  -18.9676 C   0  0  0  0  0  0  0  0  0  0  0  0
    3.4143  -48.9611  -19.2153 C   0  0  0  0  0  0  0  0  0  0  0  0
    2.8331  -48.0069  -20.0263 C   0  0  0  0  0  0  0  0  0  0  0  0
    1.6035  -48.2581  -20.5812 C   0  0  0  0  0  0  0  0  0  0  0  0
    0.9369  -49.4617  -20.3345 C   0  0  0  0  0  0  0  0  0  0  0  0
    1.5239  -50.4022  -19.5258 C   0  0  0  0  0  0  0  0  0  0  0  0
    3.4653  -46.7623  -20.2827 N   0  0  0  0  0  0  0  0  0  0  0  0
    3.6479  -46.3350  -21.6371 C   0  0  0  0  0  0  0  0  0  0  0  0
    4.1527  -44.9423  -21.8187 C   0  0  0  0  0  0  0  0  0  0  0  0
    4.9389  -44.4235  -20.6331 C   0  0  0  0  0  0  0  0  0  0  0  0
    4.0597  -44.5359  -19.4405 C   0  0  0  0  0  0  0  0  0  0  0  0
    3.8821  -45.9943  -19.1068 C   0  0  0  0  0  0  0  0  0  0  0  0
    4.4306  -43.7921  -18.2907 N   0  0  0  0  0  0  0  0  0  0  0  0
    4.7706  -44.5512  -17.1316 C   0  0  0  0  0  0  0  0  0  0  0  0
    6.1664  -44.1262  -16.7271 C   0  0  0  0  0  0  0  0  0  0  0  0
    6.2037  -42.6816  -17.1894 C   0  0  0  0  0  0  0  0  0  0  0  0
    5.4279  -42.7990  -18.4995 C   0  0  0  0  0  0  0  0  0  0  0  0
    3.6091  -50.8961  -16.7877 C   0  0  0  0  0  0  0  0  0  0  0  0
    3.3531  -51.1152  -18.1463 O   0  0  0  0  0  0  0  0  0  0  0  0
    0.5491  -53.3470  -23.6624 N   0  0  0  0  0  0  0  0  0  0  0  0
   -0.1541  -53.7059  -24.3715 H   0  0  0  0  0  0  0  0  0  0  0  0
    1.8053  -52.9965  -24.1832 C   0  0  0  0  0  0  0  0  0  0  0  0
    2.8326  -52.5280  -23.3972 C   0  0  0  0  0  0  0  0  0  0  0  0
    4.0403  -52.1958  -23.9991 C   0  0  0  0  0  0  0  0  0  0  0  0
    4.2400  -52.3187  -25.3435 C   0  0  0  0  0  0  0  0  0  0  0  0
    3.2130  -52.7915  -26.1646 C   0  0  0  0  0  0  0  0  0  0  0  0
    2.0181  -53.1212  -25.5754 C   0  0  0  0  0  0  0  0  0  0  0  0
    0.7480  -53.7119  -26.6066 S   0  0  0  0  0  0  0  0  0  0  0  0
   -0.0176  -54.8277  -25.9084 O   0  0  0  0  0  0  0  0  0  0  0  0
    1.3111  -54.1939  -27.9333 O   0  0  0  0  0  0  0  0  0  0  0  0
   -0.4669  -52.4880  -27.0183 C   0  0  0  0  0  0  0  0  0  0  0  0
   -1.8068  -52.9669  -26.4050 C   0  0  0  0  0  0  0  0  0  0  0  0
   -0.2167  -51.1495  -26.4062 C   0  0  0  0  0  0  0  0  0  0  0  0
   -0.6744  -52.4562  -28.5191 C   0  0  0  0  0  0  0  0  0  0  0  0
 27 28  1  0  0  0
 28 10  1  0  0  0
 10 11  2  0  0  0
 11 12  1  0  0  0
 12 13  2  0  0  0
 13 14  1  0  0  0
 14 15  2  0  0  0
 15  8  1  0  0  0
  8  1  1  0  0  0
  1  2  2  0  0  0
  2  3  1  0  0  0
  3  4  2  0  0  0
  4  5  1  0  0  0
  4  6  1  0  0  0
  6 29  1  0  0  0
 29 31  1  0  0  0
 31 32  2  0  0  0
 32 33  1  0  0  0
 33 34  2  0  0  0
 34 35  1  0  0  0
 35 36  2  0  0  0
 36 37  1  0  0  0
 37 38  2  0  0  0
 37 39  2  0  0  0
 37 40  1  0  0  0
 40 41  1  0  0  0
 40 42  1  0  0  0
 40 43  1  0  0  0
  6  7  2  0  0  0
 12 16  1  0  0  0
 16 17  1  0  0  0
 17 18  1  0  0  0
 18 19  1  0  0  0
 19 20  1  0  0  0
 20 21  1  0  0  0
 20 22  1  0  0  0
 22 23  1  0  0  0
 23 24  1  0  0  0
 24 25  1  0  0  0
 25 26  1  0  0  0
 15 10  1  0  0  0
  7  1  1  0  0  0
 21 16  1  0  0  0
 26 22  1  0  0  0
 36 31  1  0  0  0
  8  9  1  0  0  0
 29 30  1  0  0  0
M  END
> <minimizedAffinity>
-7.54215

> <CNNscore>
0.0756464973

> <CNNaffinity>
7.0708847046

> <CNN_VS>
0.5348876715

> <CNNaffinity_variance>
0.1662486196

$$$$
[H]c1nc(N([H])c2c([H])c([H])c(N3C([H])([H])C([H])([H])C([H])([H])[C@]([H])(N4C([H])([H])C([H])([H])C([H])([H])C4([H])[H])C3([H])[H])c([H])c2OC([H])([H])[H])nc(N([H])c2c([H])c([H])c([H])c([H])c2S(=O)(=O)C(C([H])([H])[H])(C([H])([H])[H])C([H])([H])[H])c1Cl


 43 47  0  0  0  0  0  0  0  0999 V2000
   -0.0100  -51.9023  -19.9806 C   0  0  0  0  0  0  0  0  0  0  0  0
   -0.8717  -52.8396  -19.5741 N   0  0  0  0  0  0  0  0  0  0  0  0
   -1.3226  -53.8163  -20.3710 C   0  0  0  0  0  0  0  0  0  0  0  0
   -0.9138  -53.9088  -21.6764 C   0  0  0  0  0  0  0  0  0  0  0  0
   -1.4841  -55.1742  -22.7407 Cl  0  0  0  0  0  0  0  0  0  0  0  0
   -0.0032  -52.9409  -22.1535 C   0  0  0  0  0  0  0  0  0  0  0  0
    0.3816  -52.0127  -21.2807 N   0  0  0  0  0  0  0  0  0  0  0  0
    0.5488  -50.8572  -19.2542 N   0  0  0  0  0  0  0  0  0  0  0  0
    0.0937  -50.6569  -18.2938 H   0  0  0  0  0  0  0  0  0  0  0  0
    2.8292  -50.1762  -18.8792 C   0  0  0  0  0  0  0  0  0  0  0  0
    3.8898  -49.3879  -19.1512 C   0  0  0  0  0  0  0  0  0  0  0  0
    3.8084  -48.4122  -20.1245 C   0  0  0  0  0  0  0  0  0  0  0  0
    2.6342  -48.2521  -20.8163 C   0  0  0  0  0  0  0  0  0  0  0  0
    1.5263  -49.0606  -20.5466 C   0  0  0  0  0  0  0  0  0  0  0  0
    1.6186  -50.0264  -19.5761 C   0  0  0  0  0  0  0  0  0  0  0  0
    4.9020  -47.5546  -20.4125 N   0  0  0  0  0  0  0  0  0  0  0  0
    5.3189  -46.5974  -19.4325 C   0  0  0  0  0  0  0  0  0  0  0  0
    6.5817  -45.8619  -19.7356 C   0  0  0  0  0  0  0  0  0  0  0  0
    6.8946  -45.7796  -21.2148 C   0  0  0  0  0  0  0  0  0  0  0  0
    6.9340  -47.1716  -21.7331 C   0  0  0  0  0  0  0  0  0  0  0  0
    5.5352  -47.7313  -21.7217 C   0  0  0  0  0  0  0  0  0  0  0  0
    7.5537  -47.3758  -22.9929 N   0  0  0  0  0  0  0  0  0  0  0  0
    8.6313  -48.3104  -23.0211 C   0  0  0  0  0  0  0  0  0  0  0  0
    8.2749  -49.3542  -24.0584 C   0  0  0  0  0  0  0  0  0  0  0  0
    7.4412  -48.5527  -25.0404 C   0  0  0  0  0  0  0  0  0  0  0  0
    6.6698  -47.6596  -24.0711 C   0  0  0  0  0  0  0  0  0  0  0  0
    3.5770  -50.9965  -16.6902 C   0  0  0  0  0  0  0  0  0  0  0  0
    2.8858  -51.1763  -17.8941 O   0  0  0  0  0  0  0  0  0  0  0  0
    0.4263  -53.0568  -23.4828 N   0  0  0  0  0  0  0  0  0  0  0  0
   -0.3137  -53.3499  -24.1846 H   0  0  0  0  0  0  0  0  0  0  0  0
    1.7076  -52.8368  -24.0139 C   0  0  0  0  0  0  0  0  0  0  0  0
    2.7527  -52.3540  -23.2609 C   0  0  0  0  0  0  0  0  0  0  0  0
    3.9854  -52.1575  -23.8716 C   0  0  0  0  0  0  0  0  0  0  0  0
    4.1924  -52.4273  -25.1933 C   0  0  0  0  0  0  0  0  0  0  0  0
    3.1477  -52.9179  -25.9809 C   0  0  0  0  0  0  0  0  0  0  0  0
    1.9281  -53.1140  -25.3826 C   0  0  0  0  0  0  0  0  0  0  0  0
    0.6359  -53.7284  -26.3717 S   0  0  0  0  0  0  0  0  0  0  0  0
   -0.2457  -54.6666  -25.5587 O   0  0  0  0  0  0  0  0  0  0  0  0
    1.1860  -54.4354  -27.5993 O   0  0  0  0  0  0  0  0  0  0  0  0
   -0.4516  -52.4718  -26.9898 C   0  0  0  0  0  0  0  0  0  0  0  0
    0.2235  -51.1105  -26.6868 C   0  0  0  0  0  0  0  0  0  0  0  0
   -0.6306  -52.4945  -28.4718 C   0  0  0  0  0  0  0  0  0  0  0  0
   -1.7489  -52.4859  -26.2067 C   0  0  0  0  0  0  0  0  0  0  0  0
 27 28  1  0  0  0
 28 10  1  0  0  0
 10 11  2  0  0  0
 11 12  1  0  0  0
 12 13  2  0  0  0
 13 14  1  0  0  0
 14 15  2  0  0  0
 15  8  1  0  0  0
  8  1  1  0  0  0
  1  2  2  0  0  0
  2  3  1  0  0  0
  3  4  2  0  0  0
  4  5  1  0  0  0
  4  6  1  0  0  0
  6 29  1  0  0  0
 29 31  1  0  0  0
 31 32  2  0  0  0
 32 33  1  0  0  0
 33 34  2  0  0  0
 34 35  1  0  0  0
 35 36  2  0  0  0
 36 37  1  0  0  0
 37 38  2  0  0  0
 37 39  2  0  0  0
 37 40  1  0  0  0
 40 41  1  0  0  0
 40 42  1  0  0  0
 40 43  1  0  0  0
  6  7  2  0  0  0
 12 16  1  0  0  0
 16 17  1  0  0  0
 17 18  1  0  0  0
 18 19  1  0  0  0
 19 20  1  0  0  0
 20 21  1  0  0  0
 20 22  1  0  0  0
 22 23  1  0  0  0
 23 24  1  0  0  0
 24 25  1  0  0  0
 25 26  1  0  0  0
 15 10  1  0  0  0
  7  1  1  0  0  0
 21 16  1  0  0  0
 26 22  1  0  0  0
 36 31  1  0  0  0
  8  9  1  0  0  0
 29 30  1  0  0  0
M  END
> <minimizedAffinity>
-7.78755

> <CNNscore>
0.0754064545

> <CNNaffinity>
7.2654047012

> <CNN_VS>
0.5478584170

> <CNNaffinity_variance>
0.3077367842

$$$$
[H]c1nc(N([H])c2c([H])c([H])c(N3C([H])([H])C([H])([H])C([H])([H])[C@]([H])(N4C([H])([H])C([H])([H])C([H])([H])C4([H])[H])C3([H])[H])c([H])c2OC([H])([H])[H])nc(N([H])c2c([H])c([H])c([H])c([H])c2S(=O)(=O)C(C([H])([H])[H])(C([H])([H])[H])C([H])([H])[H])c1Cl


 43 47  0  0  0  0  0  0  0  0999 V2000
    0.1405  -51.7264  -20.1386 C   0  0  0  0  0  0  0  0  0  0  0  0
   -0.7706  -52.5689  -19.6424 N   0  0  0  0  0  0  0  0  0  0  0  0
   -1.3035  -53.5726  -20.3501 C   0  0  0  0  0  0  0  0  0  0  0  0
   -0.9333  -53.7945  -21.6515 C   0  0  0  0  0  0  0  0  0  0  0  0
   -1.6106  -55.0984  -22.6003 Cl  0  0  0  0  0  0  0  0  0  0  0  0
    0.0269  -52.9303  -22.2214 C   0  0  0  0  0  0  0  0  0  0  0  0
    0.4925  -51.9645  -21.4329 N   0  0  0  0  0  0  0  0  0  0  0  0
    0.7839  -50.6674  -19.5087 N   0  0  0  0  0  0  0  0  0  0  0  0
    0.1559  -50.0326  -18.8985 H   0  0  0  0  0  0  0  0  0  0  0  0
    2.5099  -49.1892  -20.3090 C   0  0  0  0  0  0  0  0  0  0  0  0
    3.8006  -48.8023  -20.3761 C   0  0  0  0  0  0  0  0  0  0  0  0
    4.7776  -49.4934  -19.6878 C   0  0  0  0  0  0  0  0  0  0  0  0
    4.4217  -50.5810  -18.9307 C   0  0  0  0  0  0  0  0  0  0  0  0
    3.0890  -50.9947  -18.8506 C   0  0  0  0  0  0  0  0  0  0  0  0
    2.1266  -50.3008  -19.5401 C   0  0  0  0  0  0  0  0  0  0  0  0
    6.1452  -49.1210  -19.7615 N   0  0  0  0  0  0  0  0  0  0  0  0
    6.9664  -49.6709  -20.7976 C   0  0  0  0  0  0  0  0  0  0  0  0
    8.3378  -49.0944  -20.9174 C   0  0  0  0  0  0  0  0  0  0  0  0
    8.8567  -48.4925  -19.6284 C   0  0  0  0  0  0  0  0  0  0  0  0
    7.8696  -47.4709  -19.1927 C   0  0  0  0  0  0  0  0  0  0  0  0
    6.6127  -48.1723  -18.7476 C   0  0  0  0  0  0  0  0  0  0  0  0
    8.2984  -46.5296  -18.2216 N   0  0  0  0  0  0  0  0  0  0  0  0
    7.2723  -45.7732  -17.5810 C   0  0  0  0  0  0  0  0  0  0  0  0
    7.4292  -46.0005  -16.0923 C   0  0  0  0  0  0  0  0  0  0  0  0
    8.9242  -46.2241  -15.9622 C   0  0  0  0  0  0  0  0  0  0  0  0
    9.1857  -47.0339  -17.2303 C   0  0  0  0  0  0  0  0  0  0  0  0
    1.7705  -47.6806  -22.0982 C   0  0  0  0  0  0  0  0  0  0  0  0
    1.4965  -48.5034  -20.9994 O   0  0  0  0  0  0  0  0  0  0  0  0
    0.4157  -53.1786  -23.5451 N   0  0  0  0  0  0  0  0  0  0  0  0
   -0.3283  -53.5974  -24.1753 H   0  0  0  0  0  0  0  0  0  0  0  0
    1.6605  -52.9476  -24.1526 C   0  0  0  0  0  0  0  0  0  0  0  0
    2.7512  -52.4759  -23.4594 C   0  0  0  0  0  0  0  0  0  0  0  0
    3.9424  -52.2672  -24.1438 C   0  0  0  0  0  0  0  0  0  0  0  0
    4.0652  -52.5141  -25.4803 C   0  0  0  0  0  0  0  0  0  0  0  0
    2.9728  -52.9930  -26.2082 C   0  0  0  0  0  0  0  0  0  0  0  0
    1.7938  -53.2011  -25.5372 C   0  0  0  0  0  0  0  0  0  0  0  0
    0.4417  -53.8007  -26.4525 S   0  0  0  0  0  0  0  0  0  0  0  0
   -0.4117  -54.7177  -25.5870 O   0  0  0  0  0  0  0  0  0  0  0  0
    0.9151  -54.5262  -27.7011 O   0  0  0  0  0  0  0  0  0  0  0  0
   -0.6554  -52.5304  -27.0237 C   0  0  0  0  0  0  0  0  0  0  0  0
    0.0008  -51.1764  -26.6541 C   0  0  0  0  0  0  0  0  0  0  0  0
   -0.8217  -52.4889  -28.5067 C   0  0  0  0  0  0  0  0  0  0  0  0
   -1.9590  -52.5945  -26.2536 C   0  0  0  0  0  0  0  0  0  0  0  0
 27 28  1  0  0  0
 28 10  1  0  0  0
 10 11  2  0  0  0
 11 12  1  0  0  0
 12 13  2  0  0  0
 13 14  1  0  0  0
 14 15  2  0  0  0
 15  8  1  0  0  0
  8  1  1  0  0  0
  1  2  2  0  0  0
  2  3  1  0  0  0
  3  4  2  0  0  0
  4  5  1  0  0  0
  4  6  1  0  0  0
  6 29  1  0  0  0
 29 31  1  0  0  0
 31 32  2  0  0  0
 32 33  1  0  0  0
 33 34  2  0  0  0
 34 35  1  0  0  0
 35 36  2  0  0  0
 36 37  1  0  0  0
 37 38  2  0  0  0
 37 39  2  0  0  0
 37 40  1  0  0  0
 40 41  1  0  0  0
 40 42  1  0  0  0
 40 43  1  0  0  0
  6  7  2  0  0  0
 12 16  1  0  0  0
 16 17  1  0  0  0
 17 18  1  0  0  0
 18 19  1  0  0  0
 19 20  1  0  0  0
 20 21  1  0  0  0
 20 22  1  0  0  0
 22 23  1  0  0  0
 23 24  1  0  0  0
 24 25  1  0  0  0
 25 26  1  0  0  0
 15 10  1  0  0  0
  7  1  1  0  0  0
 21 16  1  0  0  0
 26 22  1  0  0  0
 36 31  1  0  0  0
  8  9  1  0  0  0
 29 30  1  0  0  0
M  END
> <minimizedAffinity>
-7.28455

> <CNNscore>
0.0583757684

> <CNNaffinity>
7.0726804733

> <CNN_VS>
0.4128731489

> <CNNaffinity_variance>
0.0597300753

$$$$
[H]c1nc(N([H])c2c([H])c([H])c(N3C([H])([H])C([H])([H])C([H])(N4C([H])([H])C([H])([H])OC([H])([H])C4([H])[H])C([H])([H])C3([H])[H])c([H])c2OC([H])([H])[H])nc(N([H])c2c([H])c([H])c([H])c([H])c2S(=O)(=O)C(C([H])([H])[H])(C([H])([H])[H])C([H])([H])[H])c1Cl


 44 48  0  0  0  0  0  0  0  0999 V2000
    0.7386  -53.1058  -23.2108 N   0  0  0  0  0  0  0  0  0  0  0  0
    0.3595  -53.9123  -23.8373 H   0  0  0  0  0  0  0  0  0  0  0  0
    0.2185  -53.0768  -21.9199 C   0  0  0  0  0  0  0  0  0  0  0  0
   -1.0768  -53.5295  -21.7771 N   0  0  0  0  0  0  0  0  0  0  0  0
   -1.7200  -53.5995  -20.6352 C   0  0  0  0  0  0  0  0  0  0  0  0
   -1.1111  -53.2107  -19.4788 C   0  0  0  0  0  0  0  0  0  0  0  0
   -1.9198  -53.2674  -17.9289 Cl  0  0  0  0  0  0  0  0  0  0  0  0
    0.2249  -52.7376  -19.5643 C   0  0  0  0  0  0  0  0  0  0  0  0
    0.7900  -52.7050  -20.7761 N   0  0  0  0  0  0  0  0  0  0  0  0
    0.8462  -52.2921  -18.3949 N   0  0  0  0  0  0  0  0  0  0  0  0
    1.5807  -52.9536  -18.0216 H   0  0  0  0  0  0  0  0  0  0  0  0
    0.6030  -51.1207  -17.6682 C   0  0  0  0  0  0  0  0  0  0  0  0
   -0.5189  -50.9220  -16.8810 C   0  0  0  0  0  0  0  0  0  0  0  0
   -0.7777  -49.8041  -16.1157 C   0  0  0  0  0  0  0  0  0  0  0  0
    0.1453  -48.8069  -16.1336 C   0  0  0  0  0  0  0  0  0  0  0  0
    1.2656  -48.9544  -16.8972 C   0  0  0  0  0  0  0  0  0  0  0  0
    1.5456  -50.0868  -17.6854 C   0  0  0  0  0  0  0  0  0  0  0  0
    2.9273  -50.0586  -18.7107 S   0  0  0  0  0  0  0  0  0  0  0  0
    3.4707  -51.4247  -19.0690 O   0  0  0  0  0  0  0  0  0  0  0  0
    4.0804  -49.4832  -17.8482 O   0  0  0  0  0  0  0  0  0  0  0  0
    2.8431  -48.9928  -20.0945 C   0  0  0  0  0  0  0  0  0  0  0  0
    2.8704  -47.5414  -19.7574 C   0  0  0  0  0  0  0  0  0  0  0  0
    3.9127  -49.3253  -21.1333 C   0  0  0  0  0  0  0  0  0  0  0  0
    1.5166  -49.2049  -20.8620 C   0  0  0  0  0  0  0  0  0  0  0  0
    1.2522  -51.4008  -24.8656 C   0  0  0  0  0  0  0  0  0  0  0  0
    2.0965  -50.5076  -25.4851 C   0  0  0  0  0  0  0  0  0  0  0  0
    3.4209  -50.4005  -25.1265 C   0  0  0  0  0  0  0  0  0  0  0  0
    3.8509  -51.2307  -24.1204 C   0  0  0  0  0  0  0  0  0  0  0  0
    2.9946  -52.1409  -23.4867 C   0  0  0  0  0  0  0  0  0  0  0  0
    1.6747  -52.2542  -23.8385 C   0  0  0  0  0  0  0  0  0  0  0  0
    4.3003  -49.4743  -25.7519 N   0  0  0  0  0  0  0  0  0  0  0  0
    5.5029  -49.1094  -25.0754 C   0  0  0  0  0  0  0  0  0  0  0  0
    6.5813  -48.5343  -25.9450 C   0  0  0  0  0  0  0  0  0  0  0  0
    6.0935  -47.9564  -27.2317 C   0  0  0  0  0  0  0  0  0  0  0  0
    4.6273  -47.6120  -27.2117 C   0  0  0  0  0  0  0  0  0  0  0  0
    3.8989  -48.9541  -27.0561 C   0  0  0  0  0  0  0  0  0  0  0  0
    6.8985  -46.8251  -27.5987 N   0  0  0  0  0  0  0  0  0  0  0  0
    8.2993  -47.1155  -27.4824 C   0  0  0  0  0  0  0  0  0  0  0  0
    8.9387  -47.2621  -28.8518 C   0  0  0  0  0  0  0  0  0  0  0  0
    8.8974  -46.0638  -29.5304 O   0  0  0  0  0  0  0  0  0  0  0  0
    7.7170  -45.3712  -29.2996 C   0  0  0  0  0  0  0  0  0  0  0  0
    6.5785  -46.3166  -28.9159 C   0  0  0  0  0  0  0  0  0  0  0  0
   -0.5197  -51.8322  -26.5222 C   0  0  0  0  0  0  0  0  0  0  0  0
   -0.0781  -51.4909  -25.2447 O   0  0  0  0  0  0  0  0  0  0  0  0
 43 44  1  0  0  0
 44 25  1  0  0  0
 25 26  2  0  0  0
 26 27  1  0  0  0
 27 28  2  0  0  0
 28 29  1  0  0  0
 29 30  2  0  0  0
 30  1  1  0  0  0
  1  3  1  0  0  0
  3  4  2  0  0  0
  4  5  1  0  0  0
  5  6  2  0  0  0
  6  7  1  0  0  0
  6  8  1  0  0  0
  8 10  1  0  0  0
 10 12  1  0  0  0
 12 13  2  0  0  0
 13 14  1  0  0  0
 14 15  2  0  0  0
 15 16  1  0  0  0
 16 17  2  0  0  0
 17 18  1  0  0  0
 18 19  2  0  0  0
 18 20  2  0  0  0
 18 21  1  0  0  0
 21 22  1  0  0  0
 21 23  1  0  0  0
 21 24  1  0  0  0
  8  9  2  0  0  0
 27 31  1  0  0  0
 31 32  1  0  0  0
 32 33  1  0  0  0
 33 34  1  0  0  0
 34 35  1  0  0  0
 35 36  1  0  0  0
 34 37  1  0  0  0
 37 38  1  0  0  0
 38 39  1  0  0  0
 39 40  1  0  0  0
 40 41  1  0  0  0
 41 42  1  0  0  0
 30 25  1  0  0  0
  9  3  1  0  0  0
 36 31  1  0  0  0
 42 37  1  0  0  0
 17 12  1  0  0  0
  1  2  1  0  0  0
 10 11  1  0  0  0
M  END
> <minimizedAffinity>
-6.92599

> <CNNscore>
0.2290107608

> <CNNaffinity>
7.2144098282

> <CNN_VS>
1.6521774530

> <CNNaffinity_variance>
0.3165877461

$$$$
[H]c1nc(N([H])c2c([H])c([H])c(N3C([H])([H])C([H])([H])C([H])(N4C([H])([H])C([H])([H])OC([H])([H])C4([H])[H])C([H])([H])C3([H])[H])c([H])c2OC([H])([H])[H])nc(N([H])c2c([H])c([H])c([H])c([H])c2S(=O)(=O)C(C([H])([H])[H])(C([H])([H])[H])C([H])([H])[H])c1Cl


 44 48  0  0  0  0  0  0  0  0999 V2000
   -0.7078  -53.1915  -18.7302 N   0  0  0  0  0  0  0  0  0  0  0  0
   -0.7897  -54.2686  -18.8710 H   0  0  0  0  0  0  0  0  0  0  0  0
   -1.3921  -52.6945  -17.6244 C   0  0  0  0  0  0  0  0  0  0  0  0
   -2.6845  -53.1472  -17.4567 N   0  0  0  0  0  0  0  0  0  0  0  0
   -3.4692  -52.8085  -16.4607 C   0  0  0  0  0  0  0  0  0  0  0  0
   -3.0250  -51.9529  -15.4965 C   0  0  0  0  0  0  0  0  0  0  0  0
   -4.0272  -51.4533  -14.1528 Cl  0  0  0  0  0  0  0  0  0  0  0  0
   -1.7003  -51.4560  -15.6158 C   0  0  0  0  0  0  0  0  0  0  0  0
   -0.9831  -51.8622  -16.6691 N   0  0  0  0  0  0  0  0  0  0  0  0
   -1.2468  -50.5423  -14.6610 N   0  0  0  0  0  0  0  0  0  0  0  0
   -0.9215  -50.9898  -13.7608 H   0  0  0  0  0  0  0  0  0  0  0  0
   -1.1951  -49.1459  -14.7434 C   0  0  0  0  0  0  0  0  0  0  0  0
   -2.2994  -48.3480  -14.9923 C   0  0  0  0  0  0  0  0  0  0  0  0
   -2.3025  -46.9695  -15.0389 C   0  0  0  0  0  0  0  0  0  0  0  0
   -1.1207  -46.3342  -14.8241 C   0  0  0  0  0  0  0  0  0  0  0  0
   -0.0038  -47.0771  -14.5787 C   0  0  0  0  0  0  0  0  0  0  0  0
    0.0187  -48.4839  -14.5289 C   0  0  0  0  0  0  0  0  0  0  0  0
    1.5346  -49.2805  -14.3590 S   0  0  0  0  0  0  0  0  0  0  0  0
    1.4578  -50.6419  -13.7030 O   0  0  0  0  0  0  0  0  0  0  0  0
    2.3204  -48.4688  -13.2968 O   0  0  0  0  0  0  0  0  0  0  0  0
    2.5725  -49.2782  -15.7663 C   0  0  0  0  0  0  0  0  0  0  0  0
    3.6518  -48.2511  -15.7347 C   0  0  0  0  0  0  0  0  0  0  0  0
    3.1540  -50.6630  -16.0453 C   0  0  0  0  0  0  0  0  0  0  0  0
    1.7548  -48.9666  -17.0423 C   0  0  0  0  0  0  0  0  0  0  0  0
    0.2686  -53.1119  -20.9549 C   0  0  0  0  0  0  0  0  0  0  0  0
    0.9703  -52.4941  -21.9650 C   0  0  0  0  0  0  0  0  0  0  0  0
    1.5249  -51.2457  -21.7980 C   0  0  0  0  0  0  0  0  0  0  0  0
    1.3397  -50.6534  -20.5727 C   0  0  0  0  0  0  0  0  0  0  0  0
    0.6255  -51.2784  -19.5420 C   0  0  0  0  0  0  0  0  0  0  0  0
    0.0708  -52.5218  -19.7001 C   0  0  0  0  0  0  0  0  0  0  0  0
    2.2431  -50.5929  -22.8374 N   0  0  0  0  0  0  0  0  0  0  0  0
    2.6751  -49.2485  -22.6303 C   0  0  0  0  0  0  0  0  0  0  0  0
    3.7951  -48.7887  -23.5158 C   0  0  0  0  0  0  0  0  0  0  0  0
    3.9409  -49.5676  -24.7804 C   0  0  0  0  0  0  0  0  0  0  0  0
    2.6914  -50.3145  -25.1671 C   0  0  0  0  0  0  0  0  0  0  0  0
    2.4838  -51.3560  -24.0591 C   0  0  0  0  0  0  0  0  0  0  0  0
    4.3926  -48.7073  -25.8380 N   0  0  0  0  0  0  0  0  0  0  0  0
    3.3124  -48.3217  -26.7009 C   0  0  0  0  0  0  0  0  0  0  0  0
    2.9368  -46.8666  -26.4829 C   0  0  0  0  0  0  0  0  0  0  0  0
    3.9765  -46.0427  -26.8546 O   0  0  0  0  0  0  0  0  0  0  0  0
    5.2135  -46.5786  -26.5244 C   0  0  0  0  0  0  0  0  0  0  0  0
    5.1079  -47.5482  -25.3473 C   0  0  0  0  0  0  0  0  0  0  0  0
   -1.0945  -54.7273  -22.2207 C   0  0  0  0  0  0  0  0  0  0  0  0
   -0.2805  -54.3701  -21.1467 O   0  0  0  0  0  0  0  0  0  0  0  0
 43 44  1  0  0  0
 44 25  1  0  0  0
 25 26  2  0  0  0
 26 27  1  0  0  0
 27 28  2  0  0  0
 28 29  1  0  0  0
 29 30  2  0  0  0
 30  1  1  0  0  0
  1  3  1  0  0  0
  3  4  2  0  0  0
  4  5  1  0  0  0
  5  6  2  0  0  0
  6  7  1  0  0  0
  6  8  1  0  0  0
  8 10  1  0  0  0
 10 12  1  0  0  0
 12 13  2  0  0  0
 13 14  1  0  0  0
 14 15  2  0  0  0
 15 16  1  0  0  0
 16 17  2  0  0  0
 17 18  1  0  0  0
 18 19  2  0  0  0
 18 20  2  0  0  0
 18 21  1  0  0  0
 21 22  1  0  0  0
 21 23  1  0  0  0
 21 24  1  0  0  0
  8  9  2  0  0  0
 27 31  1  0  0  0
 31 32  1  0  0  0
 32 33  1  0  0  0
 33 34  1  0  0  0
 34 35  1  0  0  0
 35 36  1  0  0  0
 34 37  1  0  0  0
 37 38  1  0  0  0
 38 39  1  0  0  0
 39 40  1  0  0  0
 40 41  1  0  0  0
 41 42  1  0  0  0
 30 25  1  0  0  0
  9  3  1  0  0  0
 36 31  1  0  0  0
 42 37  1  0  0  0
 17 12  1  0  0  0
  1  2  1  0  0  0
 10 11  1  0  0  0
M  END
> <minimizedAffinity>
-7.14625

> <CNNscore>
0.1547635943

> <CNNaffinity>
7.1022005081

> <CNN_VS>
1.0991621017

> <CNNaffinity_variance>
0.1051765904

$$$$
[H]c1nc(N([H])c2c([H])c([H])c(N3C([H])([H])C([H])([H])C([H])(N4C([H])([H])C([H])([H])OC([H])([H])C4([H])[H])C([H])([H])C3([H])[H])c([H])c2OC([H])([H])[H])nc(N([H])c2c([H])c([H])c([H])c([H])c2S(=O)(=O)C(C([H])([H])[H])(C([H])([H])[H])C([H])([H])[H])c1Cl


 44 48  0  0  0  0  0  0  0  0999 V2000
   -0.1243  -53.0866  -23.4075 N   0  0  0  0  0  0  0  0  0  0  0  0
   -0.9438  -53.7789  -23.5966 H   0  0  0  0  0  0  0  0  0  0  0  0
    0.7385  -52.8969  -24.4834 C   0  0  0  0  0  0  0  0  0  0  0  0
    0.4712  -53.6406  -25.6142 N   0  0  0  0  0  0  0  0  0  0  0  0
    1.1594  -53.5739  -26.7297 C   0  0  0  0  0  0  0  0  0  0  0  0
    2.2223  -52.7259  -26.8315 C   0  0  0  0  0  0  0  0  0  0  0  0
    3.1864  -52.6019  -28.2857 Cl  0  0  0  0  0  0  0  0  0  0  0  0
    2.5433  -51.9326  -25.6985 C   0  0  0  0  0  0  0  0  0  0  0  0
    1.7796  -52.0766  -24.6100 N   0  0  0  0  0  0  0  0  0  0  0  0
    3.6576  -51.0930  -25.7718 N   0  0  0  0  0  0  0  0  0  0  0  0
    4.5815  -51.6056  -25.7589 H   0  0  0  0  0  0  0  0  0  0  0  0
    3.6956  -49.6951  -25.8351 C   0  0  0  0  0  0  0  0  0  0  0  0
    3.3296  -48.9650  -26.9535 C   0  0  0  0  0  0  0  0  0  0  0  0
    3.3101  -47.5889  -27.0457 C   0  0  0  0  0  0  0  0  0  0  0  0
    3.6834  -46.8835  -25.9459 C   0  0  0  0  0  0  0  0  0  0  0  0
    4.0564  -47.5580  -24.8209 C   0  0  0  0  0  0  0  0  0  0  0  0
    4.0840  -48.9611  -24.7090 C   0  0  0  0  0  0  0  0  0  0  0  0
    4.7227  -49.6632  -23.2736 S   0  0  0  0  0  0  0  0  0  0  0  0
    3.7559  -50.5578  -22.5289 O   0  0  0  0  0  0  0  0  0  0  0  0
    4.8949  -48.4918  -22.2722 O   0  0  0  0  0  0  0  0  0  0  0  0
    6.3180  -50.3679  -23.4000 C   0  0  0  0  0  0  0  0  0  0  0  0
    7.1486  -49.8189  -24.5088 C   0  0  0  0  0  0  0  0  0  0  0  0
    7.0752  -50.3007  -22.0749 C   0  0  0  0  0  0  0  0  0  0  0  0
    6.2191  -51.8860  -23.6822 C   0  0  0  0  0  0  0  0  0  0  0  0
   -0.4373  -53.3279  -21.0090 C   0  0  0  0  0  0  0  0  0  0  0  0
   -0.3877  -52.8670  -19.7131 C   0  0  0  0  0  0  0  0  0  0  0  0
   -0.0026  -51.5784  -19.4208 C   0  0  0  0  0  0  0  0  0  0  0  0
    0.3281  -50.7819  -20.4898 C   0  0  0  0  0  0  0  0  0  0  0  0
    0.2796  -51.2473  -21.8105 C   0  0  0  0  0  0  0  0  0  0  0  0
   -0.1035  -52.5288  -22.1098 C   0  0  0  0  0  0  0  0  0  0  0  0
    0.0626  -51.0940  -18.0855 N   0  0  0  0  0  0  0  0  0  0  0  0
    0.8386  -49.9262  -17.8188 C   0  0  0  0  0  0  0  0  0  0  0  0
    0.5007  -49.2054  -16.5474 C   0  0  0  0  0  0  0  0  0  0  0  0
   -0.1900  -50.0466  -15.5264 C   0  0  0  0  0  0  0  0  0  0  0  0
    0.0130  -51.5243  -15.7363 C   0  0  0  0  0  0  0  0  0  0  0  0
   -0.6756  -51.8413  -17.0709 C   0  0  0  0  0  0  0  0  0  0  0  0
    0.2039  -49.6399  -14.2066 N   0  0  0  0  0  0  0  0  0  0  0  0
    1.1354  -50.5651  -13.6264 C   0  0  0  0  0  0  0  0  0  0  0  0
    2.5325  -49.9720  -13.5811 C   0  0  0  0  0  0  0  0  0  0  0  0
    2.5642  -48.8854  -12.7346 O   0  0  0  0  0  0  0  0  0  0  0  0
    1.4051  -48.1260  -12.8132 C   0  0  0  0  0  0  0  0  0  0  0  0
    0.7201  -48.2878  -14.1702 C   0  0  0  0  0  0  0  0  0  0  0  0
   -1.7464  -54.9972  -22.2618 C   0  0  0  0  0  0  0  0  0  0  0  0
   -0.8289  -54.6300  -21.2785 O   0  0  0  0  0  0  0  0  0  0  0  0
 43 44  1  0  0  0
 44 25  1  0  0  0
 25 26  2  0  0  0
 26 27  1  0  0  0
 27 28  2  0  0  0
 28 29  1  0  0  0
 29 30  2  0  0  0
 30  1  1  0  0  0
  1  3  1  0  0  0
  3  4  2  0  0  0
  4  5  1  0  0  0
  5  6  2  0  0  0
  6  7  1  0  0  0
  6  8  1  0  0  0
  8 10  1  0  0  0
 10 12  1  0  0  0
 12 13  2  0  0  0
 13 14  1  0  0  0
 14 15  2  0  0  0
 15 16  1  0  0  0
 16 17  2  0  0  0
 17 18  1  0  0  0
 18 19  2  0  0  0
 18 20  2  0  0  0
 18 21  1  0  0  0
 21 22  1  0  0  0
 21 23  1  0  0  0
 21 24  1  0  0  0
  8  9  2  0  0  0
 27 31  1  0  0  0
 31 32  1  0  0  0
 32 33  1  0  0  0
 33 34  1  0  0  0
 34 35  1  0  0  0
 35 36  1  0  0  0
 34 37  1  0  0  0
 37 38  1  0  0  0
 38 39  1  0  0  0
 39 40  1  0  0  0
 40 41  1  0  0  0
 41 42  1  0  0  0
 30 25  1  0  0  0
  9  3  1  0  0  0
 36 31  1  0  0  0
 42 37  1  0  0  0
 17 12  1  0  0  0
  1  2  1  0  0  0
 10 11  1  0  0  0
M  END
> <minimizedAffinity>
-7.50882

> <CNNscore>
0.1118638292

> <CNNaffinity>
7.3088102341

> <CNN_VS>
0.8175914884

> <CNNaffinity_variance>
0.1496905237

$$$$
[H]c1nc(N([H])c2c([H])c([H])c(N3C([H])([H])C([H])([H])C([H])(N4C([H])([H])C([H])([H])OC([H])([H])C4([H])[H])C([H])([H])C3([H])[H])c([H])c2OC([H])([H])[H])nc(N([H])c2c([H])c([H])c([H])c([H])c2S(=O)(=O)C(C([H])([H])[H])(C([H])([H])[H])C([H])([H])[H])c1Cl


 44 48  0  0  0  0  0  0  0  0999 V2000
    0.7183  -52.9456  -23.0525 N   0  0  0  0  0  0  0  0  0  0  0  0
    0.3263  -53.7732  -23.6424 H   0  0  0  0  0  0  0  0  0  0  0  0
    0.2529  -52.8924  -21.7415 C   0  0  0  0  0  0  0  0  0  0  0  0
   -0.9265  -53.5619  -21.4885 N   0  0  0  0  0  0  0  0  0  0  0  0
   -1.4996  -53.6424  -20.3106 C   0  0  0  0  0  0  0  0  0  0  0  0
   -0.9308  -53.0407  -19.2273 C   0  0  0  0  0  0  0  0  0  0  0  0
   -1.6529  -53.1004  -17.6354 Cl  0  0  0  0  0  0  0  0  0  0  0  0
    0.2868  -52.3382  -19.4274 C   0  0  0  0  0  0  0  0  0  0  0  0
    0.7877  -52.3154  -20.6673 N   0  0  0  0  0  0  0  0  0  0  0  0
    0.8575  -51.6775  -18.3366 N   0  0  0  0  0  0  0  0  0  0  0  0
    0.3368  -51.8214  -17.4285 H   0  0  0  0  0  0  0  0  0  0  0  0
    1.9892  -50.8541  -18.3084 C   0  0  0  0  0  0  0  0  0  0  0  0
    3.0247  -50.9373  -19.2243 C   0  0  0  0  0  0  0  0  0  0  0  0
    4.1352  -50.1200  -19.2603 C   0  0  0  0  0  0  0  0  0  0  0  0
    4.2265  -49.1475  -18.3155 C   0  0  0  0  0  0  0  0  0  0  0  0
    3.2330  -49.0282  -17.3890 C   0  0  0  0  0  0  0  0  0  0  0  0
    2.0938  -49.8538  -17.3358 C   0  0  0  0  0  0  0  0  0  0  0  0
    1.0048  -49.6749  -16.0154 S   0  0  0  0  0  0  0  0  0  0  0  0
   -0.4433  -49.4964  -16.4164 O   0  0  0  0  0  0  0  0  0  0  0  0
    1.3253  -48.2932  -15.3890 O   0  0  0  0  0  0  0  0  0  0  0  0
    1.1946  -50.8071  -14.6964 C   0  0  0  0  0  0  0  0  0  0  0  0
    0.1915  -51.9091  -14.6805 C   0  0  0  0  0  0  0  0  0  0  0  0
    2.6136  -51.3687  -14.6298 C   0  0  0  0  0  0  0  0  0  0  0  0
    1.0271  -50.0881  -13.3367 C   0  0  0  0  0  0  0  0  0  0  0  0
    1.3712  -51.7796  -25.0830 C   0  0  0  0  0  0  0  0  0  0  0  0
    2.1697  -50.9173  -25.7995 C   0  0  0  0  0  0  0  0  0  0  0  0
    3.2650  -50.3085  -25.2304 C   0  0  0  0  0  0  0  0  0  0  0  0
    3.5154  -50.6081  -23.9136 C   0  0  0  0  0  0  0  0  0  0  0  0
    2.7048  -51.4847  -23.1804 C   0  0  0  0  0  0  0  0  0  0  0  0
    1.6128  -52.0955  -23.7401 C   0  0  0  0  0  0  0  0  0  0  0  0
    4.0912  -49.4078  -25.9573 N   0  0  0  0  0  0  0  0  0  0  0  0
    3.7987  -49.1708  -27.3339 C   0  0  0  0  0  0  0  0  0  0  0  0
    4.3688  -47.9061  -27.9046 C   0  0  0  0  0  0  0  0  0  0  0  0
    5.5402  -47.3646  -27.1551 C   0  0  0  0  0  0  0  0  0  0  0  0
    6.2277  -48.3957  -26.2991 C   0  0  0  0  0  0  0  0  0  0  0  0
    5.1966  -48.7877  -25.2319 C   0  0  0  0  0  0  0  0  0  0  0  0
    6.4564  -46.7344  -28.0640 N   0  0  0  0  0  0  0  0  0  0  0  0
    7.6090  -47.5555  -28.3038 C   0  0  0  0  0  0  0  0  0  0  0  0
    7.5674  -48.1551  -29.6983 C   0  0  0  0  0  0  0  0  0  0  0  0
    7.6563  -47.1622  -30.6493 O   0  0  0  0  0  0  0  0  0  0  0  0
    6.9621  -46.0187  -30.2795 C   0  0  0  0  0  0  0  0  0  0  0  0
    5.8273  -46.3419  -29.3075 C   0  0  0  0  0  0  0  0  0  0  0  0
   -0.8774  -51.7091  -26.0873 C   0  0  0  0  0  0  0  0  0  0  0  0
    0.2735  -52.3813  -25.6783 O   0  0  0  0  0  0  0  0  0  0  0  0
 43 44  1  0  0  0
 44 25  1  0  0  0
 25 26  2  0  0  0
 26 27  1  0  0  0
 27 28  2  0  0  0
 28 29  1  0  0  0
 29 30  2  0  0  0
 30  1  1  0  0  0
  1  3  1  0  0  0
  3  4  2  0  0  0
  4  5  1  0  0  0
  5  6  2  0  0  0
  6  7  1  0  0  0
  6  8  1  0  0  0
  8 10  1  0  0  0
 10 12  1  0  0  0
 12 13  2  0  0  0
 13 14  1  0  0  0
 14 15  2  0  0  0
 15 16  1  0  0  0
 16 17  2  0  0  0
 17 18  1  0  0  0
 18 19  2  0  0  0
 18 20  2  0  0  0
 18 21  1  0  0  0
 21 22  1  0  0  0
 21 23  1  0  0  0
 21 24  1  0  0  0
  8  9  2  0  0  0
 27 31  1  0  0  0
 31 32  1  0  0  0
 32 33  1  0  0  0
 33 34  1  0  0  0
 34 35  1  0  0  0
 35 36  1  0  0  0
 34 37  1  0  0  0
 37 38  1  0  0  0
 38 39  1  0  0  0
 39 40  1  0  0  0
 40 41  1  0  0  0
 41 42  1  0  0  0
 30 25  1  0  0  0
  9  3  1  0  0  0
 36 31  1  0  0  0
 42 37  1  0  0  0
 17 12  1  0  0  0
  1  2  1  0  0  0
 10 11  1  0  0  0
M  END
> <minimizedAffinity>
-6.65623

> <CNNscore>
0.1056711674

> <CNNaffinity>
6.9683914185

> <CNN_VS>
0.7363580465

> <CNNaffinity_variance>
0.2711238861

$$$$
[H]c1nc(N([H])c2c([H])c([H])c(N3C([H])([H])C([H])([H])C([H])(N4C([H])([H])C([H])([H])OC([H])([H])C4([H])[H])C([H])([H])C3([H])[H])c([H])c2OC([H])([H])[H])nc(N([H])c2c([H])c([H])c([H])c([H])c2S(=O)(=O)C(C([H])([H])[H])(C([H])([H])[H])C([H])([H])[H])c1Cl


 44 48  0  0  0  0  0  0  0  0999 V2000
    1.3177  -52.7379  -23.1501 N   0  0  0  0  0  0  0  0  0  0  0  0
    1.2877  -53.7409  -23.5741 H   0  0  0  0  0  0  0  0  0  0  0  0
    0.7632  -52.6260  -21.8781 C   0  0  0  0  0  0  0  0  0  0  0  0
   -0.0032  -53.6919  -21.4542 N   0  0  0  0  0  0  0  0  0  0  0  0
   -0.5809  -53.7733  -20.2786 C   0  0  0  0  0  0  0  0  0  0  0  0
   -0.4456  -52.7611  -19.3751 C   0  0  0  0  0  0  0  0  0  0  0  0
   -1.2021  -52.8046  -17.7987 Cl  0  0  0  0  0  0  0  0  0  0  0  0
    0.3350  -51.6378  -19.7559 C   0  0  0  0  0  0  0  0  0  0  0  0
    0.8804  -51.6528  -20.9770 N   0  0  0  0  0  0  0  0  0  0  0  0
    0.4447  -50.5724  -18.8588 N   0  0  0  0  0  0  0  0  0  0  0  0
   -0.2815  -49.8178  -18.9993 H   0  0  0  0  0  0  0  0  0  0  0  0
    1.3871  -50.3801  -17.8418 C   0  0  0  0  0  0  0  0  0  0  0  0
    1.2840  -50.9424  -16.5803 C   0  0  0  0  0  0  0  0  0  0  0  0
    2.2081  -50.8155  -15.5643 C   0  0  0  0  0  0  0  0  0  0  0  0
    3.3179  -50.0735  -15.8179 C   0  0  0  0  0  0  0  0  0  0  0  0
    3.4629  -49.4960  -17.0448 C   0  0  0  0  0  0  0  0  0  0  0  0
    2.5301  -49.6131  -18.0926 C   0  0  0  0  0  0  0  0  0  0  0  0
    2.7830  -48.7011  -19.5298 S   0  0  0  0  0  0  0  0  0  0  0  0
    1.5157  -48.3319  -20.2697 O   0  0  0  0  0  0  0  0  0  0  0  0
    3.4551  -49.6737  -20.5332 O   0  0  0  0  0  0  0  0  0  0  0  0
    3.8974  -47.3590  -19.4092 C   0  0  0  0  0  0  0  0  0  0  0  0
    5.2801  -47.7401  -19.0047 C   0  0  0  0  0  0  0  0  0  0  0  0
    3.9206  -46.5234  -20.6878 C   0  0  0  0  0  0  0  0  0  0  0  0
    3.4227  -46.3557  -18.3313 C   0  0  0  0  0  0  0  0  0  0  0  0
    1.3895  -51.5349  -25.2611 C   0  0  0  0  0  0  0  0  0  0  0  0
    1.8796  -50.5620  -26.1024 C   0  0  0  0  0  0  0  0  0  0  0  0
    2.9202  -49.7429  -25.7279 C   0  0  0  0  0  0  0  0  0  0  0  0
    3.4397  -49.9494  -24.4733 C   0  0  0  0  0  0  0  0  0  0  0  0
    2.9434  -50.9381  -23.6135 C   0  0  0  0  0  0  0  0  0  0  0  0
    1.9079  -51.7584  -23.9793 C   0  0  0  0  0  0  0  0  0  0  0  0
    3.4282  -48.7275  -26.5841 N   0  0  0  0  0  0  0  0  0  0  0  0
    4.3218  -49.1009  -27.6325 C   0  0  0  0  0  0  0  0  0  0  0  0
    4.4427  -48.1152  -28.7567 C   0  0  0  0  0  0  0  0  0  0  0  0
    4.0511  -46.7203  -28.3986 C   0  0  0  0  0  0  0  0  0  0  0  0
    4.0837  -46.4546  -26.9164 C   0  0  0  0  0  0  0  0  0  0  0  0
    2.9956  -47.3579  -26.3198 C   0  0  0  0  0  0  0  0  0  0  0  0
    4.8611  -45.7813  -29.1231 N   0  0  0  0  0  0  0  0  0  0  0  0
    5.3088  -46.3264  -30.3731 C   0  0  0  0  0  0  0  0  0  0  0  0
    4.5753  -45.6858  -31.5382 C   0  0  0  0  0  0  0  0  0  0  0  0
    4.8875  -44.3466  -31.6226 O   0  0  0  0  0  0  0  0  0  0  0  0
    5.0133  -43.7580  -30.3720 C   0  0  0  0  0  0  0  0  0  0  0  0
    4.2009  -44.5073  -29.3158 C   0  0  0  0  0  0  0  0  0  0  0  0
   -0.9527  -51.9036  -25.9301 C   0  0  0  0  0  0  0  0  0  0  0  0
    0.3408  -52.3483  -25.6611 O   0  0  0  0  0  0  0  0  0  0  0  0
 43 44  1  0  0  0
 44 25  1  0  0  0
 25 26  2  0  0  0
 26 27  1  0  0  0
 27 28  2  0  0  0
 28 29  1  0  0  0
 29 30  2  0  0  0
 30  1  1  0  0  0
  1  3  1  0  0  0
  3  4  2  0  0  0
  4  5  1  0  0  0
  5  6  2  0  0  0
  6  7  1  0  0  0
  6  8  1  0  0  0
  8 10  1  0  0  0
 10 12  1  0  0  0
 12 13  2  0  0  0
 13 14  1  0  0  0
 14 15  2  0  0  0
 15 16  1  0  0  0
 16 17  2  0  0  0
 17 18  1  0  0  0
 18 19  2  0  0  0
 18 20  2  0  0  0
 18 21  1  0  0  0
 21 22  1  0  0  0
 21 23  1  0  0  0
 21 24  1  0  0  0
  8  9  2  0  0  0
 27 31  1  0  0  0
 31 32  1  0  0  0
 32 33  1  0  0  0
 33 34  1  0  0  0
 34 35  1  0  0  0
 35 36  1  0  0  0
 34 37  1  0  0  0
 37 38  1  0  0  0
 38 39  1  0  0  0
 39 40  1  0  0  0
 40 41  1  0  0  0
 41 42  1  0  0  0
 30 25  1  0  0  0
  9  3  1  0  0  0
 36 31  1  0  0  0
 42 37  1  0  0  0
 17 12  1  0  0  0
  1  2  1  0  0  0
 10 11  1  0  0  0
M  END
> <minimizedAffinity>
-6.49699

> <CNNscore>
0.0729140341

> <CNNaffinity>
6.7831130028

> <CNN_VS>
0.4945841432

> <CNNaffinity_variance>
0.4091029167

$$$$
[H]c1nc(N([H])c2c([H])c([H])c(N3C([H])([H])C([H])([H])C([H])(N4C([H])([H])C([H])([H])OC([H])([H])C4([H])[H])C([H])([H])C3([H])[H])c([H])c2OC([H])([H])[H])nc(N([H])c2c([H])c([H])c([H])c([H])c2S(=O)(=O)C(C([H])([H])[H])(C([H])([H])[H])C([H])([H])[H])c1Cl


 44 48  0  0  0  0  0  0  0  0999 V2000
    0.6593  -52.7924  -20.3605 N   0  0  0  0  0  0  0  0  0  0  0  0
    0.5679  -53.8457  -20.6230 H   0  0  0  0  0  0  0  0  0  0  0  0
    0.1263  -52.4524  -19.1202 C   0  0  0  0  0  0  0  0  0  0  0  0
   -1.0994  -53.0065  -18.8139 N   0  0  0  0  0  0  0  0  0  0  0  0
   -1.7397  -52.8200  -17.6836 C   0  0  0  0  0  0  0  0  0  0  0  0
   -1.1997  -52.0330  -16.7098 C   0  0  0  0  0  0  0  0  0  0  0  0
   -2.0101  -51.7352  -15.1887 Cl  0  0  0  0  0  0  0  0  0  0  0  0
    0.0631  -51.4375  -16.9686 C   0  0  0  0  0  0  0  0  0  0  0  0
    0.6316  -51.6902  -18.1525 N   0  0  0  0  0  0  0  0  0  0  0  0
    0.6078  -50.5915  -15.9993 N   0  0  0  0  0  0  0  0  0  0  0  0
    0.2170  -49.6100  -16.0193 H   0  0  0  0  0  0  0  0  0  0  0  0
    1.5958  -50.8738  -15.0488 C   0  0  0  0  0  0  0  0  0  0  0  0
    1.5153  -51.9168  -14.1412 C   0  0  0  0  0  0  0  0  0  0  0  0
    2.4821  -52.2574  -13.2183 C   0  0  0  0  0  0  0  0  0  0  0  0
    3.6139  -51.5058  -13.1925 C   0  0  0  0  0  0  0  0  0  0  0  0
    3.7383  -50.4648  -14.0646 C   0  0  0  0  0  0  0  0  0  0  0  0
    2.7620  -50.1016  -15.0117 C   0  0  0  0  0  0  0  0  0  0  0  0
    3.0012  -48.6712  -15.9380 S   0  0  0  0  0  0  0  0  0  0  0  0
    3.8185  -47.6036  -15.2437 O   0  0  0  0  0  0  0  0  0  0  0  0
    1.6115  -47.9889  -16.0260 O   0  0  0  0  0  0  0  0  0  0  0  0
    3.4824  -48.8988  -17.6036 C   0  0  0  0  0  0  0  0  0  0  0  0
    4.5370  -47.9572  -18.0748 C   0  0  0  0  0  0  0  0  0  0  0  0
    3.8856  -50.3449  -17.8858 C   0  0  0  0  0  0  0  0  0  0  0  0
    2.2813  -48.6678  -18.5511 C   0  0  0  0  0  0  0  0  0  0  0  0
    0.7101  -51.8440  -22.5982 C   0  0  0  0  0  0  0  0  0  0  0  0
    1.2445  -51.0364  -23.5762 C   0  0  0  0  0  0  0  0  0  0  0  0
    2.3982  -50.3164  -23.3653 C   0  0  0  0  0  0  0  0  0  0  0  0
    2.9837  -50.4480  -22.1298 C   0  0  0  0  0  0  0  0  0  0  0  0
    2.4427  -51.2685  -21.1312 C   0  0  0  0  0  0  0  0  0  0  0  0
    1.2946  -51.9893  -21.3337 C   0  0  0  0  0  0  0  0  0  0  0  0
    2.9541  -49.4707  -24.3642 N   0  0  0  0  0  0  0  0  0  0  0  0
    3.2705  -48.1222  -24.0200 C   0  0  0  0  0  0  0  0  0  0  0  0
    4.2573  -47.4422  -24.9222 C   0  0  0  0  0  0  0  0  0  0  0  0
    4.3646  -48.0440  -26.2837 C   0  0  0  0  0  0  0  0  0  0  0  0
    3.1639  -48.8689  -26.6664 C   0  0  0  0  0  0  0  0  0  0  0  0
    3.1579  -50.0519  -25.6884 C   0  0  0  0  0  0  0  0  0  0  0  0
    4.6347  -47.0199  -27.2537 N   0  0  0  0  0  0  0  0  0  0  0  0
    3.5094  -46.8031  -28.1180 C   0  0  0  0  0  0  0  0  0  0  0  0
    2.8242  -45.4867  -27.7968 C   0  0  0  0  0  0  0  0  0  0  0  0
    3.6660  -44.4300  -28.0670 O   0  0  0  0  0  0  0  0  0  0  0  0
    4.9847  -44.7139  -27.7402 C   0  0  0  0  0  0  0  0  0  0  0  0
    5.0744  -45.7803  -26.6486 C   0  0  0  0  0  0  0  0  0  0  0  0
   -0.5555  -53.6468  -23.7018 C   0  0  0  0  0  0  0  0  0  0  0  0
   -0.4530  -52.5603  -22.8344 O   0  0  0  0  0  0  0  0  0  0  0  0
 43 44  1  0  0  0
 44 25  1  0  0  0
 25 26  2  0  0  0
 26 27  1  0  0  0
 27 28  2  0  0  0
 28 29  1  0  0  0
 29 30  2  0  0  0
 30  1  1  0  0  0
  1  3  1  0  0  0
  3  4  2  0  0  0
  4  5  1  0  0  0
  5  6  2  0  0  0
  6  7  1  0  0  0
  6  8  1  0  0  0
  8 10  1  0  0  0
 10 12  1  0  0  0
 12 13  2  0  0  0
 13 14  1  0  0  0
 14 15  2  0  0  0
 15 16  1  0  0  0
 16 17  2  0  0  0
 17 18  1  0  0  0
 18 19  2  0  0  0
 18 20  2  0  0  0
 18 21  1  0  0  0
 21 22  1  0  0  0
 21 23  1  0  0  0
 21 24  1  0  0  0
  8  9  2  0  0  0
 27 31  1  0  0  0
 31 32  1  0  0  0
 32 33  1  0  0  0
 33 34  1  0  0  0
 34 35  1  0  0  0
 35 36  1  0  0  0
 34 37  1  0  0  0
 37 38  1  0  0  0
 38 39  1  0  0  0
 39 40  1  0  0  0
 40 41  1  0  0  0
 41 42  1  0  0  0
 30 25  1  0  0  0
  9  3  1  0  0  0
 36 31  1  0  0  0
 42 37  1  0  0  0
 17 12  1  0  0  0
  1  2  1  0  0  0
 10 11  1  0  0  0
M  END
> <minimizedAffinity>
-6.78607

> <CNNscore>
0.0648803115

> <CNNaffinity>
6.8734803200

> <CNN_VS>
0.4459535480

> <CNNaffinity_variance>
0.0859233066

$$$$
[H]c1nc(N([H])c2c([H])c([H])c(N3C([H])([H])C([H])([H])C([H])(N4C([H])([H])C([H])([H])OC([H])([H])C4([H])[H])C([H])([H])C3([H])[H])c([H])c2OC([H])([H])[H])nc(N([H])c2c([H])c([H])c([H])c([H])c2S(=O)(=O)C(C([H])([H])[H])(C([H])([H])[H])C([H])([H])[H])c1Cl


 44 48  0  0  0  0  0  0  0  0999 V2000
    0.5675  -52.8728  -20.1180 N   0  0  0  0  0  0  0  0  0  0  0  0
    0.5014  -53.9352  -20.3493 H   0  0  0  0  0  0  0  0  0  0  0  0
   -0.0133  -52.5023  -18.9083 C   0  0  0  0  0  0  0  0  0  0  0  0
   -1.2352  -53.0747  -18.6212 N   0  0  0  0  0  0  0  0  0  0  0  0
   -1.9162  -52.8641  -17.5193 C   0  0  0  0  0  0  0  0  0  0  0  0
   -1.4265  -52.0304  -16.5579 C   0  0  0  0  0  0  0  0  0  0  0  0
   -2.2927  -51.6989  -15.0750 Cl  0  0  0  0  0  0  0  0  0  0  0  0
   -0.1701  -51.4139  -16.7978 C   0  0  0  0  0  0  0  0  0  0  0  0
    0.4424  -51.6943  -17.9532 N   0  0  0  0  0  0  0  0  0  0  0  0
    0.3230  -50.5212  -15.8428 N   0  0  0  0  0  0  0  0  0  0  0  0
   -0.2125  -49.6118  -15.7900 H   0  0  0  0  0  0  0  0  0  0  0  0
    1.4222  -50.6737  -14.9897 C   0  0  0  0  0  0  0  0  0  0  0  0
    1.7136  -51.8455  -14.3114 C   0  0  0  0  0  0  0  0  0  0  0  0
    2.8069  -52.0536  -13.4968 C   0  0  0  0  0  0  0  0  0  0  0  0
    3.6765  -51.0209  -13.3417 C   0  0  0  0  0  0  0  0  0  0  0  0
    3.4304  -49.8448  -13.9865 C   0  0  0  0  0  0  0  0  0  0  0  0
    2.3196  -49.6137  -14.8201 C   0  0  0  0  0  0  0  0  0  0  0  0
    2.0682  -48.0287  -15.4412 S   0  0  0  0  0  0  0  0  0  0  0  0
    0.6530  -47.5139  -15.2926 O   0  0  0  0  0  0  0  0  0  0  0  0
    2.1915  -48.1552  -16.9817 O   0  0  0  0  0  0  0  0  0  0  0  0
    3.2618  -46.8276  -15.0046 C   0  0  0  0  0  0  0  0  0  0  0  0
    4.6550  -47.1672  -15.4102 C   0  0  0  0  0  0  0  0  0  0  0  0
    2.8779  -45.4369  -15.5066 C   0  0  0  0  0  0  0  0  0  0  0  0
    3.3188  -46.6535  -13.4683 C   0  0  0  0  0  0  0  0  0  0  0  0
    0.6706  -51.9789  -22.3762 C   0  0  0  0  0  0  0  0  0  0  0  0
    1.2262  -51.1930  -23.3601 C   0  0  0  0  0  0  0  0  0  0  0  0
    2.3715  -50.4628  -23.1381 C   0  0  0  0  0  0  0  0  0  0  0  0
    2.9263  -50.5617  -21.8856 C   0  0  0  0  0  0  0  0  0  0  0  0
    2.3637  -51.3600  -20.8810 C   0  0  0  0  0  0  0  0  0  0  0  0
    1.2238  -52.0907  -21.0944 C   0  0  0  0  0  0  0  0  0  0  0  0
    2.9490  -49.6392  -24.1433 N   0  0  0  0  0  0  0  0  0  0  0  0
    3.1621  -50.1924  -25.4416 C   0  0  0  0  0  0  0  0  0  0  0  0
    3.3141  -49.1932  -26.5499 C   0  0  0  0  0  0  0  0  0  0  0  0
    3.7333  -47.8330  -26.1008 C   0  0  0  0  0  0  0  0  0  0  0  0
    4.3876  -47.8294  -24.7441 C   0  0  0  0  0  0  0  0  0  0  0  0
    3.2908  -48.2706  -23.7652 C   0  0  0  0  0  0  0  0  0  0  0  0
    4.5719  -47.2240  -27.0950 N   0  0  0  0  0  0  0  0  0  0  0  0
    5.9437  -47.1846  -26.6746 C   0  0  0  0  0  0  0  0  0  0  0  0
    6.7769  -48.1929  -27.4459 C   0  0  0  0  0  0  0  0  0  0  0  0
    6.8229  -47.8550  -28.7808 O   0  0  0  0  0  0  0  0  0  0  0  0
    5.6147  -47.3439  -29.2339 C   0  0  0  0  0  0  0  0  0  0  0  0
    4.4420  -47.8500  -28.3939 C   0  0  0  0  0  0  0  0  0  0  0  0
   -0.5647  -53.8002  -23.4837 C   0  0  0  0  0  0  0  0  0  0  0  0
   -0.4833  -52.7059  -22.6239 O   0  0  0  0  0  0  0  0  0  0  0  0
 43 44  1  0  0  0
 44 25  1  0  0  0
 25 26  2  0  0  0
 26 27  1  0  0  0
 27 28  2  0  0  0
 28 29  1  0  0  0
 29 30  2  0  0  0
 30  1  1  0  0  0
  1  3  1  0  0  0
  3  4  2  0  0  0
  4  5  1  0  0  0
  5  6  2  0  0  0
  6  7  1  0  0  0
  6  8  1  0  0  0
  8 10  1  0  0  0
 10 12  1  0  0  0
 12 13  2  0  0  0
 13 14  1  0  0  0
 14 15  2  0  0  0
 15 16  1  0  0  0
 16 17  2  0  0  0
 17 18  1  0  0  0
 18 19  2  0  0  0
 18 20  2  0  0  0
 18 21  1  0  0  0
 21 22  1  0  0  0
 21 23  1  0  0  0
 21 24  1  0  0  0
  8  9  2  0  0  0
 27 31  1  0  0  0
 31 32  1  0  0  0
 32 33  1  0  0  0
 33 34  1  0  0  0
 34 35  1  0  0  0
 35 36  1  0  0  0
 34 37  1  0  0  0
 37 38  1  0  0  0
 38 39  1  0  0  0
 39 40  1  0  0  0
 40 41  1  0  0  0
 41 42  1  0  0  0
 30 25  1  0  0  0
  9  3  1  0  0  0
 36 31  1  0  0  0
 42 37  1  0  0  0
 17 12  1  0  0  0
  1  2  1  0  0  0
 10 11  1  0  0  0
M  END
> <minimizedAffinity>
-6.25620

> <CNNscore>
0.0639611855

> <CNNaffinity>
6.7566986084

> <CNN_VS>
0.4321664572

> <CNNaffinity_variance>
0.1048950404

$$$$
[H]c1nc(N([H])c2c([H])c([H])c(N3C([H])([H])C([H])([H])C([H])(N4C([H])([H])C([H])([H])OC([H])([H])C4([H])[H])C([H])([H])C3([H])[H])c([H])c2OC([H])([H])[H])nc(N([H])c2c([H])c([H])c([H])c([H])c2S(=O)(=O)C(C([H])([H])[H])(C([H])([H])[H])C([H])([H])[H])c1Cl


 44 48  0  0  0  0  0  0  0  0999 V2000
   -0.8188  -52.6258  -23.2355 N   0  0  0  0  0  0  0  0  0  0  0  0
   -1.8966  -52.6593  -23.3900 H   0  0  0  0  0  0  0  0  0  0  0  0
   -0.0587  -52.8342  -24.3831 C   0  0  0  0  0  0  0  0  0  0  0  0
   -0.6266  -53.6384  -25.3495 N   0  0  0  0  0  0  0  0  0  0  0  0
   -0.0698  -53.9233  -26.5032 C   0  0  0  0  0  0  0  0  0  0  0  0
    1.1550  -53.4142  -26.8193 C   0  0  0  0  0  0  0  0  0  0  0  0
    1.9546  -53.7682  -28.3341 Cl  0  0  0  0  0  0  0  0  0  0  0  0
    1.7873  -52.5767  -25.8628 C   0  0  0  0  0  0  0  0  0  0  0  0
    1.1355  -52.3493  -24.7173 N   0  0  0  0  0  0  0  0  0  0  0  0
    3.0626  -52.0851  -26.1527 N   0  0  0  0  0  0  0  0  0  0  0  0
    3.2861  -52.0571  -27.1850 H   0  0  0  0  0  0  0  0  0  0  0  0
    4.0576  -51.6598  -25.2648 C   0  0  0  0  0  0  0  0  0  0  0  0
    4.6604  -52.4860  -24.3309 C   0  0  0  0  0  0  0  0  0  0  0  0
    5.6726  -52.1214  -23.4678 C   0  0  0  0  0  0  0  0  0  0  0  0
    6.1200  -50.8400  -23.5348 C   0  0  0  0  0  0  0  0  0  0  0  0
    5.5547  -49.9870  -24.4362 C   0  0  0  0  0  0  0  0  0  0  0  0
    4.5203  -50.3406  -25.3233 C   0  0  0  0  0  0  0  0  0  0  0  0
    3.8088  -49.1115  -26.2950 S   0  0  0  0  0  0  0  0  0  0  0  0
    2.3636  -48.8085  -25.9645 O   0  0  0  0  0  0  0  0  0  0  0  0
    3.6807  -49.7190  -27.7159 O   0  0  0  0  0  0  0  0  0  0  0  0
    4.7567  -47.6600  -26.5243 C   0  0  0  0  0  0  0  0  0  0  0  0
    4.8984  -46.8169  -25.3036 C   0  0  0  0  0  0  0  0  0  0  0  0
    6.1252  -47.9654  -27.1306 C   0  0  0  0  0  0  0  0  0  0  0  0
    4.0932  -46.7400  -27.5765 C   0  0  0  0  0  0  0  0  0  0  0  0
    0.3999  -51.2802  -21.6189 C   0  0  0  0  0  0  0  0  0  0  0  0
    0.7874  -50.9524  -20.3396 C   0  0  0  0  0  0  0  0  0  0  0  0
    0.3911  -51.6985  -19.2531 C   0  0  0  0  0  0  0  0  0  0  0  0
   -0.4092  -52.7833  -19.5158 C   0  0  0  0  0  0  0  0  0  0  0  0
   -0.8066  -53.1202  -20.8164 C   0  0  0  0  0  0  0  0  0  0  0  0
   -0.4155  -52.3828  -21.9037 C   0  0  0  0  0  0  0  0  0  0  0  0
    0.7764  -51.3637  -17.9259 N   0  0  0  0  0  0  0  0  0  0  0  0
   -0.2242  -51.3419  -16.9083 C   0  0  0  0  0  0  0  0  0  0  0  0
    0.2854  -51.4552  -15.5020 C   0  0  0  0  0  0  0  0  0  0  0  0
    1.7143  -51.0601  -15.3302 C   0  0  0  0  0  0  0  0  0  0  0  0
    2.2268  -50.1815  -16.4411 C   0  0  0  0  0  0  0  0  0  0  0  0
    2.1864  -51.0576  -17.7007 C   0  0  0  0  0  0  0  0  0  0  0  0
    1.9046  -50.4520  -14.0431 N   0  0  0  0  0  0  0  0  0  0  0  0
    3.2069  -50.7391  -13.5123 C   0  0  0  0  0  0  0  0  0  0  0  0
    4.0966  -49.5096  -13.5631 C   0  0  0  0  0  0  0  0  0  0  0  0
    3.6030  -48.5266  -12.7336 O   0  0  0  0  0  0  0  0  0  0  0  0
    2.2160  -48.4770  -12.7474 C   0  0  0  0  0  0  0  0  0  0  0  0
    1.6487  -49.0271  -14.0560 C   0  0  0  0  0  0  0  0  0  0  0  0
    1.8450  -49.5777  -22.6596 C   0  0  0  0  0  0  0  0  0  0  0  0
    0.8125  -50.5136  -22.6977 O   0  0  0  0  0  0  0  0  0  0  0  0
 43 44  1  0  0  0
 44 25  1  0  0  0
 25 26  2  0  0  0
 26 27  1  0  0  0
 27 28  2  0  0  0
 28 29  1  0  0  0
 29 30  2  0  0  0
 30  1  1  0  0  0
  1  3  1  0  0  0
  3  4  2  0  0  0
  4  5  1  0  0  0
  5  6  2  0  0  0
  6  7  1  0  0  0
  6  8  1  0  0  0
  8 10  1  0  0  0
 10 12  1  0  0  0
 12 13  2  0  0  0
 13 14  1  0  0  0
 14 15  2  0  0  0
 15 16  1  0  0  0
 16 17  2  0  0  0
 17 18  1  0  0  0
 18 19  2  0  0  0
 18 20  2  0  0  0
 18 21  1  0  0  0
 21 22  1  0  0  0
 21 23  1  0  0  0
 21 24  1  0  0  0
  8  9  2  0  0  0
 27 31  1  0  0  0
 31 32  1  0  0  0
 32 33  1  0  0  0
 33 34  1  0  0  0
 34 35  1  0  0  0
 35 36  1  0  0  0
 34 37  1  0  0  0
 37 38  1  0  0  0
 38 39  1  0  0  0
 39 40  1  0  0  0
 40 41  1  0  0  0
 41 42  1  0  0  0
 30 25  1  0  0  0
  9  3  1  0  0  0
 36 31  1  0  0  0
 42 37  1  0  0  0
 17 12  1  0  0  0
  1  2  1  0  0  0
 10 11  1  0  0  0
M  END
> <minimizedAffinity>
-7.05427

> <CNNscore>
0.0617684573

> <CNNaffinity>
7.0095872879

> <CNN_VS>
0.4329713881

> <CNNaffinity_variance>
0.2027955502

$$$$
[H]c1nc(N([H])c2c([H])c([H])c(N3C([H])([H])C([H])([H])C([H])(N4C([H])([H])C([H])([H])OC([H])([H])C4([H])[H])C([H])([H])C3([H])[H])c([H])c2OC([H])([H])[H])nc(N([H])c2c([H])c([H])c([H])c([H])c2S(=O)(=O)C(C([H])([H])[H])(C([H])([H])[H])C([H])([H])[H])c1Cl


 44 48  0  0  0  0  0  0  0  0999 V2000
    1.3353  -52.5012  -22.7130 N   0  0  0  0  0  0  0  0  0  0  0  0
    1.2305  -53.4734  -23.1930 H   0  0  0  0  0  0  0  0  0  0  0  0
    0.7838  -52.4184  -21.4375 C   0  0  0  0  0  0  0  0  0  0  0  0
   -0.0423  -53.4585  -21.0647 N   0  0  0  0  0  0  0  0  0  0  0  0
   -0.6275  -53.5627  -19.8947 C   0  0  0  0  0  0  0  0  0  0  0  0
   -0.4387  -52.6033  -18.9443 C   0  0  0  0  0  0  0  0  0  0  0  0
   -1.2015  -52.6786  -17.3721 Cl  0  0  0  0  0  0  0  0  0  0  0  0
    0.4047  -51.5089  -19.2712 C   0  0  0  0  0  0  0  0  0  0  0  0
    0.9523  -51.4968  -20.4914 N   0  0  0  0  0  0  0  0  0  0  0  0
    0.5709  -50.4946  -18.3248 N   0  0  0  0  0  0  0  0  0  0  0  0
   -0.1178  -50.5387  -17.5246 H   0  0  0  0  0  0  0  0  0  0  0  0
    1.4978  -49.4457  -18.3219 C   0  0  0  0  0  0  0  0  0  0  0  0
    1.9825  -48.8435  -19.4710 C   0  0  0  0  0  0  0  0  0  0  0  0
    2.8612  -47.7812  -19.5140 C   0  0  0  0  0  0  0  0  0  0  0  0
    3.2933  -47.2791  -18.3275 C   0  0  0  0  0  0  0  0  0  0  0  0
    2.8471  -47.8414  -17.1680 C   0  0  0  0  0  0  0  0  0  0  0  0
    1.9521  -48.9263  -17.1047 C   0  0  0  0  0  0  0  0  0  0  0  0
    1.6019  -49.6201  -15.5694 S   0  0  0  0  0  0  0  0  0  0  0  0
    0.2303  -50.2504  -15.4640 O   0  0  0  0  0  0  0  0  0  0  0  0
    1.4708  -48.4270  -14.5878 O   0  0  0  0  0  0  0  0  0  0  0  0
    2.8509  -50.6251  -14.8709 C   0  0  0  0  0  0  0  0  0  0  0  0
    3.7866  -49.9038  -13.9626 C   0  0  0  0  0  0  0  0  0  0  0  0
    2.2683  -51.8557  -14.1782 C   0  0  0  0  0  0  0  0  0  0  0  0
    3.7467  -51.2259  -15.9802 C   0  0  0  0  0  0  0  0  0  0  0  0
    1.6660  -51.3607  -24.8341 C   0  0  0  0  0  0  0  0  0  0  0  0
    2.2376  -50.3956  -25.6317 C   0  0  0  0  0  0  0  0  0  0  0  0
    3.1859  -49.5259  -25.1432 C   0  0  0  0  0  0  0  0  0  0  0  0
    3.5282  -49.6742  -23.8214 C   0  0  0  0  0  0  0  0  0  0  0  0
    2.9483  -50.6549  -23.0058 C   0  0  0  0  0  0  0  0  0  0  0  0
    2.0040  -51.5252  -23.4848 C   0  0  0  0  0  0  0  0  0  0  0  0
    3.7759  -48.5181  -25.9546 N   0  0  0  0  0  0  0  0  0  0  0  0
    2.9305  -47.5249  -26.5342 C   0  0  0  0  0  0  0  0  0  0  0  0
    3.6194  -46.2626  -26.9609 C   0  0  0  0  0  0  0  0  0  0  0  0
    5.0846  -46.4112  -27.2027 C   0  0  0  0  0  0  0  0  0  0  0  0
    5.5050  -47.8354  -27.4546 C   0  0  0  0  0  0  0  0  0  0  0  0
    5.2230  -48.5785  -26.1416 C   0  0  0  0  0  0  0  0  0  0  0  0
    5.4977  -45.5406  -28.2676 N   0  0  0  0  0  0  0  0  0  0  0  0
    5.7581  -46.2720  -29.4748 C   0  0  0  0  0  0  0  0  0  0  0  0
    4.6655  -46.0313  -30.5015 C   0  0  0  0  0  0  0  0  0  0  0  0
    4.6643  -44.7122  -30.8993 O   0  0  0  0  0  0  0  0  0  0  0  0
    4.9410  -43.8479  -29.8492 C   0  0  0  0  0  0  0  0  0  0  0  0
    4.5602  -44.4627  -28.5023 C   0  0  0  0  0  0  0  0  0  0  0  0
    0.9413  -53.1398  -26.3766 C   0  0  0  0  0  0  0  0  0  0  0  0
    0.7132  -52.2258  -25.3490 O   0  0  0  0  0  0  0  0  0  0  0  0
 43 44  1  0  0  0
 44 25  1  0  0  0
 25 26  2  0  0  0
 26 27  1  0  0  0
 27 28  2  0  0  0
 28 29  1  0  0  0
 29 30  2  0  0  0
 30  1  1  0  0  0
  1  3  1  0  0  0
  3  4  2  0  0  0
  4  5  1  0  0  0
  5  6  2  0  0  0
  6  7  1  0  0  0
  6  8  1  0  0  0
  8 10  1  0  0  0
 10 12  1  0  0  0
 12 13  2  0  0  0
 13 14  1  0  0  0
 14 15  2  0  0  0
 15 16  1  0  0  0
 16 17  2  0  0  0
 17 18  1  0  0  0
 18 19  2  0  0  0
 18 20  2  0  0  0
 18 21  1  0  0  0
 21 22  1  0  0  0
 21 23  1  0  0  0
 21 24  1  0  0  0
  8  9  2  0  0  0
 27 31  1  0  0  0
 31 32  1  0  0  0
 32 33  1  0  0  0
 33 34  1  0  0  0
 34 35  1  0  0  0
 35 36  1  0  0  0
 34 37  1  0  0  0
 37 38  1  0  0  0
 38 39  1  0  0  0
 39 40  1  0  0  0
 40 41  1  0  0  0
 41 42  1  0  0  0
 30 25  1  0  0  0
  9  3  1  0  0  0
 36 31  1  0  0  0
 42 37  1  0  0  0
 17 12  1  0  0  0
  1  2  1  0  0  0
 10 11  1  0  0  0
M  END
> <minimizedAffinity>
-6.58962

> <CNNscore>
0.0579157434

> <CNNaffinity>
6.7369852066

> <CNN_VS>
0.3901775181

> <CNNaffinity_variance>
0.2078369111

$$$$
[H]c1nc(N([H])c2c([H])c([H])c(N3C([H])([H])C([H])([H])C([H])([H])C3([H])[H])c([H])c2OC([H])([H])[H])nc(N([H])c2c([H])c([H])c([H])c([H])c2S(=O)(=O)C([H])(C([H])([H])[H])C([H])([H])[H])c1Cl


 36 39  0  0  0  0  0  0  0  0999 V2000
   -0.9666  -53.7212  -20.6655 C   0  0  0  0  0  0  0  0  0  0  0  0
   -1.3572  -54.7474  -21.4236 N   0  0  0  0  0  0  0  0  0  0  0  0
   -1.1692  -54.8013  -22.7476 C   0  0  0  0  0  0  0  0  0  0  0  0
   -0.5472  -53.7716  -23.4037 C   0  0  0  0  0  0  0  0  0  0  0  0
   -0.2689  -53.7653  -25.1149 Cl  0  0  0  0  0  0  0  0  0  0  0  0
   -0.1134  -52.6594  -22.6461 C   0  0  0  0  0  0  0  0  0  0  0  0
   -0.3565  -52.7204  -21.3365 N   0  0  0  0  0  0  0  0  0  0  0  0
   -1.1489  -53.6280  -19.2654 N   0  0  0  0  0  0  0  0  0  0  0  0
   -1.6511  -54.4848  -18.8334 H   0  0  0  0  0  0  0  0  0  0  0  0
   -1.5511  -52.3832  -17.2360 C   0  0  0  0  0  0  0  0  0  0  0  0
   -1.2165  -51.3896  -16.3471 C   0  0  0  0  0  0  0  0  0  0  0  0
   -0.1285  -50.5816  -16.5373 C   0  0  0  0  0  0  0  0  0  0  0  0
    0.6345  -50.7801  -17.6437 C   0  0  0  0  0  0  0  0  0  0  0  0
    0.2882  -51.7996  -18.5523 C   0  0  0  0  0  0  0  0  0  0  0  0
   -0.7819  -52.6149  -18.3912 C   0  0  0  0  0  0  0  0  0  0  0  0
    0.1408  -49.5811  -15.5599 N   0  0  0  0  0  0  0  0  0  0  0  0
   -0.4689  -49.5814  -14.2379 C   0  0  0  0  0  0  0  0  0  0  0  0
    0.0273  -48.3574  -13.5387 C   0  0  0  0  0  0  0  0  0  0  0  0
    0.4771  -47.4460  -14.6590 C   0  0  0  0  0  0  0  0  0  0  0  0
    1.0147  -48.4346  -15.6742 C   0  0  0  0  0  0  0  0  0  0  0  0
   -3.7964  -52.6317  -16.3813 C   0  0  0  0  0  0  0  0  0  0  0  0
   -2.6586  -53.1849  -17.0160 O   0  0  0  0  0  0  0  0  0  0  0  0
    0.5571  -51.6371  -23.3314 N   0  0  0  0  0  0  0  0  0  0  0  0
    0.3883  -51.5779  -24.3587 H   0  0  0  0  0  0  0  0  0  0  0  0
    1.4105  -50.6789  -22.7589 C   0  0  0  0  0  0  0  0  0  0  0  0
    0.9553  -49.8796  -21.7037 C   0  0  0  0  0  0  0  0  0  0  0  0
    1.7417  -48.8444  -21.2085 C   0  0  0  0  0  0  0  0  0  0  0  0
    2.9670  -48.6283  -21.7791 C   0  0  0  0  0  0  0  0  0  0  0  0
    3.4442  -49.3831  -22.8048 C   0  0  0  0  0  0  0  0  0  0  0  0
    2.6677  -50.4466  -23.3298 C   0  0  0  0  0  0  0  0  0  0  0  0
    3.3546  -51.4404  -24.5542 S   0  0  0  0  0  0  0  0  0  0  0  0
    2.9770  -52.9155  -24.2122 O   0  0  0  0  0  0  0  0  0  0  0  0
    4.8539  -51.3710  -24.5593 O   0  0  0  0  0  0  0  0  0  0  0  0
    2.6705  -51.1593  -26.1252 C   0  0  0  0  0  0  0  0  0  0  0  0
    3.2944  -49.8982  -26.7446 C   0  0  0  0  0  0  0  0  0  0  0  0
    2.8663  -52.2515  -27.1168 C   0  0  0  0  0  0  0  0  0  0  0  0
 21 22  1  0  0  0
 22 10  1  0  0  0
 10 11  2  0  0  0
 11 12  1  0  0  0
 12 13  2  0  0  0
 13 14  1  0  0  0
 14 15  2  0  0  0
 15  8  1  0  0  0
  8  1  1  0  0  0
  1  2  2  0  0  0
  2  3  1  0  0  0
  3  4  2  0  0  0
  4  5  1  0  0  0
  4  6  1  0  0  0
  6 23  1  0  0  0
 23 25  1  0  0  0
 25 26  2  0  0  0
 26 27  1  0  0  0
 27 28  2  0  0  0
 28 29  1  0  0  0
 29 30  2  0  0  0
 30 31  1  0  0  0
 31 32  2  0  0  0
 31 33  2  0  0  0
 31 34  1  0  0  0
 34 35  1  0  0  0
 34 36  1  0  0  0
  6  7  2  0  0  0
 12 16  1  0  0  0
 16 17  1  0  0  0
 17 18  1  0  0  0
 18 19  1  0  0  0
 19 20  1  0  0  0
 15 10  1  0  0  0
  7  1  1  0  0  0
 20 16  1  0  0  0
 30 25  1  0  0  0
  8  9  1  0  0  0
 23 24  1  0  0  0
M  END
> <minimizedAffinity>
-7.73283

> <CNNscore>
0.7078652978

> <CNNaffinity>
7.3874015808

> <CNN_VS>
5.2292852402

> <CNNaffinity_variance>
0.0290499963

$$$$
[H]c1nc(N([H])c2c([H])c([H])c(N3C([H])([H])C([H])([H])C([H])([H])C3([H])[H])c([H])c2OC([H])([H])[H])nc(N([H])c2c([H])c([H])c([H])c([H])c2S(=O)(=O)C([H])(C([H])([H])[H])C([H])([H])[H])c1Cl


 36 39  0  0  0  0  0  0  0  0999 V2000
   -0.2702  -53.1442  -20.2226 C   0  0  0  0  0  0  0  0  0  0  0  0
   -1.2294  -53.5405  -21.0612 N   0  0  0  0  0  0  0  0  0  0  0  0
   -1.2025  -53.3051  -22.3785 C   0  0  0  0  0  0  0  0  0  0  0  0
   -0.1548  -52.6248  -22.9417 C   0  0  0  0  0  0  0  0  0  0  0  0
   -0.0479  -52.2786  -24.6370 Cl  0  0  0  0  0  0  0  0  0  0  0  0
    0.8886  -52.1825  -22.0962 C   0  0  0  0  0  0  0  0  0  0  0  0
    0.7502  -52.4764  -20.8031 N   0  0  0  0  0  0  0  0  0  0  0  0
   -0.2645  -53.3730  -18.8263 N   0  0  0  0  0  0  0  0  0  0  0  0
    0.4683  -54.1037  -18.5074 H   0  0  0  0  0  0  0  0  0  0  0  0
   -0.5475  -51.7215  -17.0879 C   0  0  0  0  0  0  0  0  0  0  0  0
   -1.2976  -51.1319  -16.0982 C   0  0  0  0  0  0  0  0  0  0  0  0
   -2.5593  -51.5627  -15.7895 C   0  0  0  0  0  0  0  0  0  0  0  0
   -3.0724  -52.6063  -16.4918 C   0  0  0  0  0  0  0  0  0  0  0  0
   -2.3005  -53.2078  -17.5055 C   0  0  0  0  0  0  0  0  0  0  0  0
   -1.0496  -52.8039  -17.8337 C   0  0  0  0  0  0  0  0  0  0  0  0
   -3.2613  -50.8872  -14.7504 N   0  0  0  0  0  0  0  0  0  0  0  0
   -4.6680  -50.5261  -14.8504 C   0  0  0  0  0  0  0  0  0  0  0  0
   -5.0128  -49.7998  -13.5907 C   0  0  0  0  0  0  0  0  0  0  0  0
   -3.6794  -49.3204  -13.0612 C   0  0  0  0  0  0  0  0  0  0  0  0
   -2.7532  -50.4483  -13.4696 C   0  0  0  0  0  0  0  0  0  0  0  0
    0.8878  -49.9613  -17.9096 C   0  0  0  0  0  0  0  0  0  0  0  0
    0.7267  -51.2628  -17.3771 O   0  0  0  0  0  0  0  0  0  0  0  0
    1.9697  -51.5256  -22.6995 N   0  0  0  0  0  0  0  0  0  0  0  0
    2.5785  -52.1038  -23.3179 H   0  0  0  0  0  0  0  0  0  0  0  0
    2.2899  -50.1641  -22.5650 C   0  0  0  0  0  0  0  0  0  0  0  0
    1.4959  -49.3357  -21.7632 C   0  0  0  0  0  0  0  0  0  0  0  0
    1.7240  -47.9642  -21.7172 C   0  0  0  0  0  0  0  0  0  0  0  0
    2.7406  -47.4481  -22.4748 C   0  0  0  0  0  0  0  0  0  0  0  0
    3.5335  -48.2199  -23.2655 C   0  0  0  0  0  0  0  0  0  0  0  0
    3.3277  -49.6210  -23.3320 C   0  0  0  0  0  0  0  0  0  0  0  0
    4.4205  -50.5698  -24.2616 S   0  0  0  0  0  0  0  0  0  0  0  0
    4.6674  -51.8916  -23.4696 O   0  0  0  0  0  0  0  0  0  0  0  0
    5.7569  -49.9031  -24.4116 O   0  0  0  0  0  0  0  0  0  0  0  0
    3.7576  -51.0804  -25.7830 C   0  0  0  0  0  0  0  0  0  0  0  0
    3.3845  -52.5702  -25.7126 C   0  0  0  0  0  0  0  0  0  0  0  0
    2.5300  -50.3635  -26.2228 C   0  0  0  0  0  0  0  0  0  0  0  0
 21 22  1  0  0  0
 22 10  1  0  0  0
 10 11  2  0  0  0
 11 12  1  0  0  0
 12 13  2  0  0  0
 13 14  1  0  0  0
 14 15  2  0  0  0
 15  8  1  0  0  0
  8  1  1  0  0  0
  1  2  2  0  0  0
  2  3  1  0  0  0
  3  4  2  0  0  0
  4  5  1  0  0  0
  4  6  1  0  0  0
  6 23  1  0  0  0
 23 25  1  0  0  0
 25 26  2  0  0  0
 26 27  1  0  0  0
 27 28  2  0  0  0
 28 29  1  0  0  0
 29 30  2  0  0  0
 30 31  1  0  0  0
 31 32  2  0  0  0
 31 33  2  0  0  0
 31 34  1  0  0  0
 34 35  1  0  0  0
 34 36  1  0  0  0
  6  7  2  0  0  0
 12 16  1  0  0  0
 16 17  1  0  0  0
 17 18  1  0  0  0
 18 19  1  0  0  0
 19 20  1  0  0  0
 15 10  1  0  0  0
  7  1  1  0  0  0
 20 16  1  0  0  0
 30 25  1  0  0  0
  8  9  1  0  0  0
 23 24  1  0  0  0
M  END
> <minimizedAffinity>
-6.93990

> <CNNscore>
0.3245093524

> <CNNaffinity>
7.0314378738

> <CNN_VS>
2.2817673683

> <CNNaffinity_variance>
0.1749092042

$$$$
[H]c1nc(N([H])c2c([H])c([H])c(N3C([H])([H])C([H])([H])C([H])([H])C3([H])[H])c([H])c2OC([H])([H])[H])nc(N([H])c2c([H])c([H])c([H])c([H])c2S(=O)(=O)C([H])(C([H])([H])[H])C([H])([H])[H])c1Cl


 36 39  0  0  0  0  0  0  0  0999 V2000
   -1.4702  -52.8232  -17.8322 C   0  0  0  0  0  0  0  0  0  0  0  0
   -2.6800  -52.9719  -17.2894 N   0  0  0  0  0  0  0  0  0  0  0  0
   -3.0372  -52.4270  -16.1204 C   0  0  0  0  0  0  0  0  0  0  0  0
   -2.1473  -51.6678  -15.4067 C   0  0  0  0  0  0  0  0  0  0  0  0
   -2.5324  -50.9310  -13.8854 Cl  0  0  0  0  0  0  0  0  0  0  0  0
   -0.8507  -51.4791  -15.9381 C   0  0  0  0  0  0  0  0  0  0  0  0
   -0.6129  -52.0709  -17.1089 N   0  0  0  0  0  0  0  0  0  0  0  0
   -1.0561  -53.3843  -19.0634 N   0  0  0  0  0  0  0  0  0  0  0  0
   -1.2707  -54.4419  -19.1544 H   0  0  0  0  0  0  0  0  0  0  0  0
   -0.3945  -53.4431  -21.3847 C   0  0  0  0  0  0  0  0  0  0  0  0
    0.2171  -52.8749  -22.4767 C   0  0  0  0  0  0  0  0  0  0  0  0
    0.8193  -51.6475  -22.4147 C   0  0  0  0  0  0  0  0  0  0  0  0
    0.8037  -50.9827  -21.2300 C   0  0  0  0  0  0  0  0  0  0  0  0
    0.1758  -51.5684  -20.1131 C   0  0  0  0  0  0  0  0  0  0  0  0
   -0.4282  -52.7808  -20.1436 C   0  0  0  0  0  0  0  0  0  0  0  0
    1.4245  -51.1386  -23.5994 N   0  0  0  0  0  0  0  0  0  0  0  0
    0.8933  -51.3913  -24.9310 C   0  0  0  0  0  0  0  0  0  0  0  0
    1.8272  -50.7340  -25.8949 C   0  0  0  0  0  0  0  0  0  0  0  0
    3.1174  -50.5851  -25.1195 C   0  0  0  0  0  0  0  0  0  0  0  0
    2.6133  -50.3233  -23.7145 C   0  0  0  0  0  0  0  0  0  0  0  0
   -1.3553  -55.1853  -22.7539 C   0  0  0  0  0  0  0  0  0  0  0  0
   -0.9955  -54.6871  -21.4788 O   0  0  0  0  0  0  0  0  0  0  0  0
    0.0293  -50.6651  -15.2118 N   0  0  0  0  0  0  0  0  0  0  0  0
   -0.2754  -49.6813  -15.0485 H   0  0  0  0  0  0  0  0  0  0  0  0
    1.2637  -51.0597  -14.6689 C   0  0  0  0  0  0  0  0  0  0  0  0
    1.3183  -52.1182  -13.7546 C   0  0  0  0  0  0  0  0  0  0  0  0
    2.5106  -52.4408  -13.1144 C   0  0  0  0  0  0  0  0  0  0  0  0
    3.6241  -51.6978  -13.4003 C   0  0  0  0  0  0  0  0  0  0  0  0
    3.6111  -50.6628  -14.2824 C   0  0  0  0  0  0  0  0  0  0  0  0
    2.4124  -50.3110  -14.9525 C   0  0  0  0  0  0  0  0  0  0  0  0
    2.4672  -49.0650  -16.1371 S   0  0  0  0  0  0  0  0  0  0  0  0
    3.8741  -48.3975  -16.0349 O   0  0  0  0  0  0  0  0  0  0  0  0
    1.4593  -47.9864  -15.8657 O   0  0  0  0  0  0  0  0  0  0  0  0
    2.3771  -49.6653  -17.7639 C   0  0  0  0  0  0  0  0  0  0  0  0
    2.7222  -48.5393  -18.7522 C   0  0  0  0  0  0  0  0  0  0  0  0
    3.2907  -50.7954  -18.0840 C   0  0  0  0  0  0  0  0  0  0  0  0
 21 22  1  0  0  0
 22 10  1  0  0  0
 10 11  2  0  0  0
 11 12  1  0  0  0
 12 13  2  0  0  0
 13 14  1  0  0  0
 14 15  2  0  0  0
 15  8  1  0  0  0
  8  1  1  0  0  0
  1  2  2  0  0  0
  2  3  1  0  0  0
  3  4  2  0  0  0
  4  5  1  0  0  0
  4  6  1  0  0  0
  6 23  1  0  0  0
 23 25  1  0  0  0
 25 26  2  0  0  0
 26 27  1  0  0  0
 27 28  2  0  0  0
 28 29  1  0  0  0
 29 30  2  0  0  0
 30 31  1  0  0  0
 31 32  2  0  0  0
 31 33  2  0  0  0
 31 34  1  0  0  0
 34 35  1  0  0  0
 34 36  1  0  0  0
  6  7  2  0  0  0
 12 16  1  0  0  0
 16 17  1  0  0  0
 17 18  1  0  0  0
 18 19  1  0  0  0
 19 20  1  0  0  0
 15 10  1  0  0  0
  7  1  1  0  0  0
 20 16  1  0  0  0
 30 25  1  0  0  0
  8  9  1  0  0  0
 23 24  1  0  0  0
M  END
> <minimizedAffinity>
-7.01293

> <CNNscore>
0.3043352365

> <CNNaffinity>
7.0576810837

> <CNN_VS>
2.1479010582

> <CNNaffinity_variance>
0.1022262424

$$$$
[H]c1nc(N([H])c2c([H])c([H])c(N3C([H])([H])C([H])([H])C([H])([H])C3([H])[H])c([H])c2OC([H])([H])[H])nc(N([H])c2c([H])c([H])c([H])c([H])c2S(=O)(=O)C([H])(C([H])([H])[H])C([H])([H])[H])c1Cl


 36 39  0  0  0  0  0  0  0  0999 V2000
    0.5268  -52.6993  -21.3838 C   0  0  0  0  0  0  0  0  0  0  0  0
   -0.5014  -53.1883  -22.0794 N   0  0  0  0  0  0  0  0  0  0  0  0
   -0.7059  -52.9287  -23.3764 C   0  0  0  0  0  0  0  0  0  0  0  0
    0.1598  -52.1234  -24.0689 C   0  0  0  0  0  0  0  0  0  0  0  0
   -0.0373  -51.7380  -25.7477 Cl  0  0  0  0  0  0  0  0  0  0  0  0
    1.2667  -51.5791  -23.3777 C   0  0  0  0  0  0  0  0  0  0  0  0
    1.3644  -51.9092  -22.0896 N   0  0  0  0  0  0  0  0  0  0  0  0
    0.7748  -52.9499  -20.0134 N   0  0  0  0  0  0  0  0  0  0  0  0
    1.5597  -53.6753  -19.8382 H   0  0  0  0  0  0  0  0  0  0  0  0
    0.6647  -51.2129  -18.3401 C   0  0  0  0  0  0  0  0  0  0  0  0
    0.0857  -50.6461  -17.2297 C   0  0  0  0  0  0  0  0  0  0  0  0
   -0.9958  -51.2087  -16.6078 C   0  0  0  0  0  0  0  0  0  0  0  0
   -1.5011  -52.3631  -17.1156 C   0  0  0  0  0  0  0  0  0  0  0  0
   -0.9048  -52.9408  -18.2539 C   0  0  0  0  0  0  0  0  0  0  0  0
    0.1657  -52.4076  -18.8908 C   0  0  0  0  0  0  0  0  0  0  0  0
   -1.5296  -50.5469  -15.4651 N   0  0  0  0  0  0  0  0  0  0  0  0
   -1.9338  -51.2532  -14.2581 C   0  0  0  0  0  0  0  0  0  0  0  0
   -2.4777  -50.2227  -13.3224 C   0  0  0  0  0  0  0  0  0  0  0  0
   -2.8442  -49.0619  -14.2203 C   0  0  0  0  0  0  0  0  0  0  0  0
   -1.7663  -49.1319  -15.2833 C   0  0  0  0  0  0  0  0  0  0  0  0
    1.6255  -49.3198  -19.4920 C   0  0  0  0  0  0  0  0  0  0  0  0
    1.7587  -50.6195  -18.9474 O   0  0  0  0  0  0  0  0  0  0  0  0
    2.1615  -50.7924  -24.1157 N   0  0  0  0  0  0  0  0  0  0  0  0
    1.7447  -50.0253  -24.6859 H   0  0  0  0  0  0  0  0  0  0  0  0
    3.5597  -50.9291  -24.1370 C   0  0  0  0  0  0  0  0  0  0  0  0
    4.1355  -52.1894  -24.3366 C   0  0  0  0  0  0  0  0  0  0  0  0
    5.5121  -52.3634  -24.2373 C   0  0  0  0  0  0  0  0  0  0  0  0
    6.2856  -51.2741  -23.9392 C   0  0  0  0  0  0  0  0  0  0  0  0
    5.7638  -50.0342  -23.7389 C   0  0  0  0  0  0  0  0  0  0  0  0
    4.3652  -49.8242  -23.8355 C   0  0  0  0  0  0  0  0  0  0  0  0
    3.7612  -48.2212  -23.6794 S   0  0  0  0  0  0  0  0  0  0  0  0
    4.8925  -47.3670  -23.0269 O   0  0  0  0  0  0  0  0  0  0  0  0
    2.5823  -48.1522  -22.7530 O   0  0  0  0  0  0  0  0  0  0  0  0
    3.4519  -47.4565  -25.2074 C   0  0  0  0  0  0  0  0  0  0  0  0
    4.1331  -46.0788  -25.2453 C   0  0  0  0  0  0  0  0  0  0  0  0
    3.9361  -48.1942  -26.4056 C   0  0  0  0  0  0  0  0  0  0  0  0
 21 22  1  0  0  0
 22 10  1  0  0  0
 10 11  2  0  0  0
 11 12  1  0  0  0
 12 13  2  0  0  0
 13 14  1  0  0  0
 14 15  2  0  0  0
 15  8  1  0  0  0
  8  1  1  0  0  0
  1  2  2  0  0  0
  2  3  1  0  0  0
  3  4  2  0  0  0
  4  5  1  0  0  0
  4  6  1  0  0  0
  6 23  1  0  0  0
 23 25  1  0  0  0
 25 26  2  0  0  0
 26 27  1  0  0  0
 27 28  2  0  0  0
 28 29  1  0  0  0
 29 30  2  0  0  0
 30 31  1  0  0  0
 31 32  2  0  0  0
 31 33  2  0  0  0
 31 34  1  0  0  0
 34 35  1  0  0  0
 34 36  1  0  0  0
  6  7  2  0  0  0
 12 16  1  0  0  0
 16 17  1  0  0  0
 17 18  1  0  0  0
 18 19  1  0  0  0
 19 20  1  0  0  0
 15 10  1  0  0  0
  7  1  1  0  0  0
 20 16  1  0  0  0
 30 25  1  0  0  0
  8  9  1  0  0  0
 23 24  1  0  0  0
M  END
> <minimizedAffinity>
-6.64356

> <CNNscore>
0.2896232307

> <CNNaffinity>
6.9539918900

> <CNN_VS>
2.0140376091

> <CNNaffinity_variance>
0.2368956804

$$$$
[H]c1nc(N([H])c2c([H])c([H])c(N3C([H])([H])C([H])([H])C([H])([H])C3([H])[H])c([H])c2OC([H])([H])[H])nc(N([H])c2c([H])c([H])c([H])c([H])c2S(=O)(=O)C([H])(C([H])([H])[H])C([H])([H])[H])c1Cl


 36 39  0  0  0  0  0  0  0  0999 V2000
    0.3433  -52.1826  -20.1822 C   0  0  0  0  0  0  0  0  0  0  0  0
   -0.1696  -52.3071  -18.9568 N   0  0  0  0  0  0  0  0  0  0  0  0
   -0.0159  -51.3892  -17.9950 C   0  0  0  0  0  0  0  0  0  0  0  0
    0.6981  -50.2444  -18.2344 C   0  0  0  0  0  0  0  0  0  0  0  0
    0.9440  -49.0106  -17.0417 Cl  0  0  0  0  0  0  0  0  0  0  0  0
    1.2631  -50.0635  -19.5179 C   0  0  0  0  0  0  0  0  0  0  0  0
    1.0420  -51.0459  -20.3918 N   0  0  0  0  0  0  0  0  0  0  0  0
    0.2034  -53.1309  -21.2231 N   0  0  0  0  0  0  0  0  0  0  0  0
    0.1266  -54.1531  -20.8739 H   0  0  0  0  0  0  0  0  0  0  0  0
   -0.4628  -53.9037  -23.4114 C   0  0  0  0  0  0  0  0  0  0  0  0
   -0.5332  -53.7433  -24.7747 C   0  0  0  0  0  0  0  0  0  0  0  0
   -0.0136  -52.6448  -25.4042 C   0  0  0  0  0  0  0  0  0  0  0  0
    0.5872  -51.6923  -24.6443 C   0  0  0  0  0  0  0  0  0  0  0  0
    0.6572  -51.8604  -23.2473 C   0  0  0  0  0  0  0  0  0  0  0  0
    0.1524  -52.9360  -22.5960 C   0  0  0  0  0  0  0  0  0  0  0  0
   -0.1373  -52.5647  -26.8209 N   0  0  0  0  0  0  0  0  0  0  0  0
   -1.4230  -52.5124  -27.5016 C   0  0  0  0  0  0  0  0  0  0  0  0
   -1.1295  -52.4817  -28.9666 C   0  0  0  0  0  0  0  0  0  0  0  0
    0.2714  -53.0415  -29.0768 C   0  0  0  0  0  0  0  0  0  0  0  0
    0.9190  -52.5246  -27.8078 C   0  0  0  0  0  0  0  0  0  0  0  0
   -1.3575  -56.1391  -23.6015 C   0  0  0  0  0  0  0  0  0  0  0  0
   -0.9982  -55.0268  -22.8033 O   0  0  0  0  0  0  0  0  0  0  0  0
    1.9537  -48.8668  -19.7532 N   0  0  0  0  0  0  0  0  0  0  0  0
    1.3705  -48.0149  -19.9004 H   0  0  0  0  0  0  0  0  0  0  0  0
    3.3495  -48.7097  -19.7848 C   0  0  0  0  0  0  0  0  0  0  0  0
    4.0975  -48.8715  -18.6126 C   0  0  0  0  0  0  0  0  0  0  0  0
    5.4616  -48.5988  -18.5990 C   0  0  0  0  0  0  0  0  0  0  0  0
    6.0504  -48.1687  -19.7575 C   0  0  0  0  0  0  0  0  0  0  0  0
    5.3581  -47.9998  -20.9158 C   0  0  0  0  0  0  0  0  0  0  0  0
    3.9675  -48.2715  -20.9623 C   0  0  0  0  0  0  0  0  0  0  0  0
    3.1548  -48.1460  -22.4731 S   0  0  0  0  0  0  0  0  0  0  0  0
    3.2314  -46.6502  -22.9115 O   0  0  0  0  0  0  0  0  0  0  0  0
    1.6973  -48.4855  -22.3574 O   0  0  0  0  0  0  0  0  0  0  0  0
    3.9429  -49.0236  -23.7473 C   0  0  0  0  0  0  0  0  0  0  0  0
    4.1076  -50.4963  -23.3380 C   0  0  0  0  0  0  0  0  0  0  0  0
    3.2352  -49.0313  -25.0563 C   0  0  0  0  0  0  0  0  0  0  0  0
 21 22  1  0  0  0
 22 10  1  0  0  0
 10 11  2  0  0  0
 11 12  1  0  0  0
 12 13  2  0  0  0
 13 14  1  0  0  0
 14 15  2  0  0  0
 15  8  1  0  0  0
  8  1  1  0  0  0
  1  2  2  0  0  0
  2  3  1  0  0  0
  3  4  2  0  0  0
  4  5  1  0  0  0
  4  6  1  0  0  0
  6 23  1  0  0  0
 23 25  1  0  0  0
 25 26  2  0  0  0
 26 27  1  0  0  0
 27 28  2  0  0  0
 28 29  1  0  0  0
 29 30  2  0  0  0
 30 31  1  0  0  0
 31 32  2  0  0  0
 31 33  2  0  0  0
 31 34  1  0  0  0
 34 35  1  0  0  0
 34 36  1  0  0  0
  6  7  2  0  0  0
 12 16  1  0  0  0
 16 17  1  0  0  0
 17 18  1  0  0  0
 18 19  1  0  0  0
 19 20  1  0  0  0
 15 10  1  0  0  0
  7  1  1  0  0  0
 20 16  1  0  0  0
 30 25  1  0  0  0
  8  9  1  0  0  0
 23 24  1  0  0  0
M  END
> <minimizedAffinity>
-6.68654

> <CNNscore>
0.2821758389

> <CNNaffinity>
7.2969193459

> <CNN_VS>
2.0590143204

> <CNNaffinity_variance>
0.1472119838

$$$$
[H]c1nc(N([H])c2c([H])c([H])c(N3C([H])([H])C([H])([H])C([H])([H])C3([H])[H])c([H])c2OC([H])([H])[H])nc(N([H])c2c([H])c([H])c([H])c([H])c2S(=O)(=O)C([H])(C([H])([H])[H])C([H])([H])[H])c1Cl


 36 39  0  0  0  0  0  0  0  0999 V2000
    0.2017  -51.8511  -19.6495 C   0  0  0  0  0  0  0  0  0  0  0  0
   -0.7393  -52.7311  -19.3023 N   0  0  0  0  0  0  0  0  0  0  0  0
   -1.1562  -53.7205  -20.1013 C   0  0  0  0  0  0  0  0  0  0  0  0
   -0.6174  -53.8783  -21.3514 C   0  0  0  0  0  0  0  0  0  0  0  0
   -1.1050  -55.1317  -22.4452 Cl  0  0  0  0  0  0  0  0  0  0  0  0
    0.3842  -52.9715  -21.7684 C   0  0  0  0  0  0  0  0  0  0  0  0
    0.7160  -52.0290  -20.8857 N   0  0  0  0  0  0  0  0  0  0  0  0
    0.6668  -50.7926  -18.8337 N   0  0  0  0  0  0  0  0  0  0  0  0
    0.1374  -50.7024  -17.8933 H   0  0  0  0  0  0  0  0  0  0  0  0
    2.9533  -50.0917  -18.5023 C   0  0  0  0  0  0  0  0  0  0  0  0
    3.9836  -49.2066  -18.7135 C   0  0  0  0  0  0  0  0  0  0  0  0
    3.8290  -48.0812  -19.4767 C   0  0  0  0  0  0  0  0  0  0  0  0
    2.6135  -47.8455  -20.0360 C   0  0  0  0  0  0  0  0  0  0  0  0
    1.5601  -48.7551  -19.8172 C   0  0  0  0  0  0  0  0  0  0  0  0
    1.6827  -49.8768  -19.0672 C   0  0  0  0  0  0  0  0  0  0  0  0
    4.9551  -47.2248  -19.6417 N   0  0  0  0  0  0  0  0  0  0  0  0
    6.2163  -47.4323  -18.9448 C   0  0  0  0  0  0  0  0  0  0  0  0
    7.1157  -46.3084  -19.3462 C   0  0  0  0  0  0  0  0  0  0  0  0
    6.1712  -45.2332  -19.8359 C   0  0  0  0  0  0  0  0  0  0  0  0
    5.0677  -46.0501  -20.4775 C   0  0  0  0  0  0  0  0  0  0  0  0
    3.5041  -51.0725  -16.3650 C   0  0  0  0  0  0  0  0  0  0  0  0
    3.1408  -51.2221  -17.7248 O   0  0  0  0  0  0  0  0  0  0  0  0
    0.9503  -53.1769  -23.0339 N   0  0  0  0  0  0  0  0  0  0  0  0
    1.7648  -53.8266  -23.0788 H   0  0  0  0  0  0  0  0  0  0  0  0
    0.5076  -52.6087  -24.2403 C   0  0  0  0  0  0  0  0  0  0  0  0
   -0.6317  -53.1171  -24.8752 C   0  0  0  0  0  0  0  0  0  0  0  0
   -1.0119  -52.6501  -26.1293 C   0  0  0  0  0  0  0  0  0  0  0  0
   -0.2447  -51.6849  -26.7240 C   0  0  0  0  0  0  0  0  0  0  0  0
    0.8682  -51.1661  -26.1393 C   0  0  0  0  0  0  0  0  0  0  0  0
    1.2803  -51.6196  -24.8609 C   0  0  0  0  0  0  0  0  0  0  0  0
    2.6314  -50.8605  -24.1147 S   0  0  0  0  0  0  0  0  0  0  0  0
    2.0726  -49.9312  -22.9925 O   0  0  0  0  0  0  0  0  0  0  0  0
    3.3791  -49.9775  -25.0709 O   0  0  0  0  0  0  0  0  0  0  0  0
    3.6724  -51.9782  -23.2889 C   0  0  0  0  0  0  0  0  0  0  0  0
    4.9152  -52.2617  -24.1484 C   0  0  0  0  0  0  0  0  0  0  0  0
    4.1762  -51.5285  -21.9629 C   0  0  0  0  0  0  0  0  0  0  0  0
 21 22  1  0  0  0
 22 10  1  0  0  0
 10 11  2  0  0  0
 11 12  1  0  0  0
 12 13  2  0  0  0
 13 14  1  0  0  0
 14 15  2  0  0  0
 15  8  1  0  0  0
  8  1  1  0  0  0
  1  2  2  0  0  0
  2  3  1  0  0  0
  3  4  2  0  0  0
  4  5  1  0  0  0
  4  6  1  0  0  0
  6 23  1  0  0  0
 23 25  1  0  0  0
 25 26  2  0  0  0
 26 27  1  0  0  0
 27 28  2  0  0  0
 28 29  1  0  0  0
 29 30  2  0  0  0
 30 31  1  0  0  0
 31 32  2  0  0  0
 31 33  2  0  0  0
 31 34  1  0  0  0
 34 35  1  0  0  0
 34 36  1  0  0  0
  6  7  2  0  0  0
 12 16  1  0  0  0
 16 17  1  0  0  0
 17 18  1  0  0  0
 18 19  1  0  0  0
 19 20  1  0  0  0
 15 10  1  0  0  0
  7  1  1  0  0  0
 20 16  1  0  0  0
 30 25  1  0  0  0
  8  9  1  0  0  0
 23 24  1  0  0  0
M  END
> <minimizedAffinity>
-6.87007

> <CNNscore>
0.2314095050

> <CNNaffinity>
6.8649621010

> <CNN_VS>
1.5886174440

> <CNNaffinity_variance>
0.2330633700

$$$$
[H]c1nc(N([H])c2c([H])c([H])c(N3C([H])([H])C([H])([H])C([H])([H])C3([H])[H])c([H])c2OC([H])([H])[H])nc(N([H])c2c([H])c([H])c([H])c([H])c2S(=O)(=O)C([H])(C([H])([H])[H])C([H])([H])[H])c1Cl


 36 39  0  0  0  0  0  0  0  0999 V2000
    0.3378  -51.1284  -21.3559 C   0  0  0  0  0  0  0  0  0  0  0  0
   -0.4966  -51.8155  -20.5738 N   0  0  0  0  0  0  0  0  0  0  0  0
   -1.0412  -52.9869  -20.9239 C   0  0  0  0  0  0  0  0  0  0  0  0
   -0.7563  -53.5500  -22.1402 C   0  0  0  0  0  0  0  0  0  0  0  0
   -1.4225  -55.0612  -22.6674 Cl  0  0  0  0  0  0  0  0  0  0  0  0
    0.1232  -52.8618  -23.0074 C   0  0  0  0  0  0  0  0  0  0  0  0
    0.6018  -51.7051  -22.5483 N   0  0  0  0  0  0  0  0  0  0  0  0
    0.9313  -49.8882  -21.0214 N   0  0  0  0  0  0  0  0  0  0  0  0
    0.3263  -49.2797  -20.3607 H   0  0  0  0  0  0  0  0  0  0  0  0
    3.3376  -49.8393  -20.8292 C   0  0  0  0  0  0  0  0  0  0  0  0
    4.5644  -49.3381  -21.1945 C   0  0  0  0  0  0  0  0  0  0  0  0
    4.6954  -48.3540  -22.1363 C   0  0  0  0  0  0  0  0  0  0  0  0
    3.5687  -47.8676  -22.7192 C   0  0  0  0  0  0  0  0  0  0  0  0
    2.3132  -48.3840  -22.3422 C   0  0  0  0  0  0  0  0  0  0  0  0
    2.1519  -49.3574  -21.4137 C   0  0  0  0  0  0  0  0  0  0  0  0
    6.0082  -47.9004  -22.4518 N   0  0  0  0  0  0  0  0  0  0  0  0
    6.6259  -46.7522  -21.8042 C   0  0  0  0  0  0  0  0  0  0  0  0
    7.9676  -46.5754  -22.4380 C   0  0  0  0  0  0  0  0  0  0  0  0
    7.8495  -47.2926  -23.7646 C   0  0  0  0  0  0  0  0  0  0  0  0
    6.9335  -48.4493  -23.4181 C   0  0  0  0  0  0  0  0  0  0  0  0
    3.7129  -50.5856  -18.5630 C   0  0  0  0  0  0  0  0  0  0  0  0
    3.2374  -50.8355  -19.8725 O   0  0  0  0  0  0  0  0  0  0  0  0
    0.4329  -53.4760  -24.2285 N   0  0  0  0  0  0  0  0  0  0  0  0
    0.9649  -54.3714  -24.1765 H   0  0  0  0  0  0  0  0  0  0  0  0
    0.0734  -53.0092  -25.5040 C   0  0  0  0  0  0  0  0  0  0  0  0
   -1.2775  -52.9192  -25.8598 C   0  0  0  0  0  0  0  0  0  0  0  0
   -1.6475  -52.5782  -27.1568 C   0  0  0  0  0  0  0  0  0  0  0  0
   -0.6595  -52.3352  -28.0724 C   0  0  0  0  0  0  0  0  0  0  0  0
    0.6631  -52.4120  -27.7652 C   0  0  0  0  0  0  0  0  0  0  0  0
    1.0721  -52.7548  -26.4518 C   0  0  0  0  0  0  0  0  0  0  0  0
    2.7518  -52.7363  -26.0820 S   0  0  0  0  0  0  0  0  0  0  0  0
    3.5018  -53.2987  -27.3297 O   0  0  0  0  0  0  0  0  0  0  0  0
    3.0851  -53.6451  -24.9348 O   0  0  0  0  0  0  0  0  0  0  0  0
    3.3859  -51.1342  -25.8671 C   0  0  0  0  0  0  0  0  0  0  0  0
    2.2330  -50.1499  -25.6110 C   0  0  0  0  0  0  0  0  0  0  0  0
    4.3373  -50.9654  -24.7354 C   0  0  0  0  0  0  0  0  0  0  0  0
 21 22  1  0  0  0
 22 10  1  0  0  0
 10 11  2  0  0  0
 11 12  1  0  0  0
 12 13  2  0  0  0
 13 14  1  0  0  0
 14 15  2  0  0  0
 15  8  1  0  0  0
  8  1  1  0  0  0
  1  2  2  0  0  0
  2  3  1  0  0  0
  3  4  2  0  0  0
  4  5  1  0  0  0
  4  6  1  0  0  0
  6 23  1  0  0  0
 23 25  1  0  0  0
 25 26  2  0  0  0
 26 27  1  0  0  0
 27 28  2  0  0  0
 28 29  1  0  0  0
 29 30  2  0  0  0
 30 31  1  0  0  0
 31 32  2  0  0  0
 31 33  2  0  0  0
 31 34  1  0  0  0
 34 35  1  0  0  0
 34 36  1  0  0  0
  6  7  2  0  0  0
 12 16  1  0  0  0
 16 17  1  0  0  0
 17 18  1  0  0  0
 18 19  1  0  0  0
 19 20  1  0  0  0
 15 10  1  0  0  0
  7  1  1  0  0  0
 20 16  1  0  0  0
 30 25  1  0  0  0
  8  9  1  0  0  0
 23 24  1  0  0  0
M  END
> <minimizedAffinity>
-6.78881

> <CNNscore>
0.1786345840

> <CNNaffinity>
6.8457932472

> <CNN_VS>
1.2228953838

> <CNNaffinity_variance>
0.3318598866

$$$$
[H]c1nc(N([H])c2c([H])c([H])c(N3C([H])([H])C([H])([H])C([H])([H])C3([H])[H])c([H])c2OC([H])([H])[H])nc(N([H])c2c([H])c([H])c([H])c([H])c2S(=O)(=O)C([H])(C([H])([H])[H])C([H])([H])[H])c1Cl


 36 39  0  0  0  0  0  0  0  0999 V2000
   -0.1862  -51.9339  -20.7659 C   0  0  0  0  0  0  0  0  0  0  0  0
   -1.0634  -52.8404  -20.3312 N   0  0  0  0  0  0  0  0  0  0  0  0
   -1.4260  -53.9165  -21.0396 C   0  0  0  0  0  0  0  0  0  0  0  0
   -0.8950  -54.1415  -22.2827 C   0  0  0  0  0  0  0  0  0  0  0  0
   -1.3150  -55.5087  -23.2623 Cl  0  0  0  0  0  0  0  0  0  0  0  0
    0.0399  -53.2101  -22.7903 C   0  0  0  0  0  0  0  0  0  0  0  0
    0.3217  -52.1793  -21.9930 N   0  0  0  0  0  0  0  0  0  0  0  0
    0.2201  -50.7847  -20.0472 N   0  0  0  0  0  0  0  0  0  0  0  0
   -0.0032  -49.8532  -20.5524 H   0  0  0  0  0  0  0  0  0  0  0  0
    2.2409  -50.4844  -18.7605 C   0  0  0  0  0  0  0  0  0  0  0  0
    2.8980  -50.3835  -17.5573 C   0  0  0  0  0  0  0  0  0  0  0  0
    2.2402  -50.4763  -16.3609 C   0  0  0  0  0  0  0  0  0  0  0  0
    0.8963  -50.6744  -16.3795 C   0  0  0  0  0  0  0  0  0  0  0  0
    0.2265  -50.7772  -17.6147 C   0  0  0  0  0  0  0  0  0  0  0  0
    0.8499  -50.6894  -18.8144 C   0  0  0  0  0  0  0  0  0  0  0  0
    3.0055  -50.3560  -15.1656 N   0  0  0  0  0  0  0  0  0  0  0  0
    3.2123  -51.4631  -14.2432 C   0  0  0  0  0  0  0  0  0  0  0  0
    4.0185  -50.9259  -13.1055 C   0  0  0  0  0  0  0  0  0  0  0  0
    3.7945  -49.4311  -13.1643 C   0  0  0  0  0  0  0  0  0  0  0  0
    3.6861  -49.1863  -14.6560 C   0  0  0  0  0  0  0  0  0  0  0  0
    3.7220  -51.4798  -20.3880 C   0  0  0  0  0  0  0  0  0  0  0  0
    2.9345  -50.3863  -19.9550 O   0  0  0  0  0  0  0  0  0  0  0  0
    0.6011  -53.4820  -24.0454 N   0  0  0  0  0  0  0  0  0  0  0  0
    1.4013  -54.1505  -24.0618 H   0  0  0  0  0  0  0  0  0  0  0  0
    0.1704  -52.9568  -25.2754 C   0  0  0  0  0  0  0  0  0  0  0  0
   -1.1983  -52.8297  -25.5399 C   0  0  0  0  0  0  0  0  0  0  0  0
   -1.6432  -52.4292  -26.7956 C   0  0  0  0  0  0  0  0  0  0  0  0
   -0.7108  -52.1650  -27.7623 C   0  0  0  0  0  0  0  0  0  0  0  0
    0.6269  -52.2766  -27.5440 C   0  0  0  0  0  0  0  0  0  0  0  0
    1.1117  -52.6802  -26.2744 C   0  0  0  0  0  0  0  0  0  0  0  0
    2.8116  -52.7050  -26.0127 S   0  0  0  0  0  0  0  0  0  0  0  0
    3.4686  -53.2451  -27.3211 O   0  0  0  0  0  0  0  0  0  0  0  0
    3.1978  -53.6533  -24.9151 O   0  0  0  0  0  0  0  0  0  0  0  0
    3.4919  -51.1225  -25.7942 C   0  0  0  0  0  0  0  0  0  0  0  0
    2.3737  -50.1166  -25.4754 C   0  0  0  0  0  0  0  0  0  0  0  0
    4.4903  -50.9973  -24.6979 C   0  0  0  0  0  0  0  0  0  0  0  0
 21 22  1  0  0  0
 22 10  1  0  0  0
 10 11  2  0  0  0
 11 12  1  0  0  0
 12 13  2  0  0  0
 13 14  1  0  0  0
 14 15  2  0  0  0
 15  8  1  0  0  0
  8  1  1  0  0  0
  1  2  2  0  0  0
  2  3  1  0  0  0
  3  4  2  0  0  0
  4  5  1  0  0  0
  4  6  1  0  0  0
  6 23  1  0  0  0
 23 25  1  0  0  0
 25 26  2  0  0  0
 26 27  1  0  0  0
 27 28  2  0  0  0
 28 29  1  0  0  0
 29 30  2  0  0  0
 30 31  1  0  0  0
 31 32  2  0  0  0
 31 33  2  0  0  0
 31 34  1  0  0  0
 34 35  1  0  0  0
 34 36  1  0  0  0
  6  7  2  0  0  0
 12 16  1  0  0  0
 16 17  1  0  0  0
 17 18  1  0  0  0
 18 19  1  0  0  0
 19 20  1  0  0  0
 15 10  1  0  0  0
  7  1  1  0  0  0
 20 16  1  0  0  0
 30 25  1  0  0  0
  8  9  1  0  0  0
 23 24  1  0  0  0
M  END
> <minimizedAffinity>
-7.34982

> <CNNscore>
0.1656702906

> <CNNaffinity>
6.8836722374

> <CNN_VS>
1.1404199600

> <CNNaffinity_variance>
0.1218078509

$$$$
[H]c1nc(N([H])c2c([H])c([H])c(N3C([H])([H])C([H])([H])C([H])([H])C3([H])[H])c([H])c2OC([H])([H])[H])nc(N([H])c2c([H])c([H])c([H])c([H])c2S(=O)(=O)C([H])(C([H])([H])[H])C([H])([H])[H])c1Cl


 36 39  0  0  0  0  0  0  0  0999 V2000
    0.7453  -52.2737  -20.5755 C   0  0  0  0  0  0  0  0  0  0  0  0
   -0.0852  -53.2180  -20.1294 N   0  0  0  0  0  0  0  0  0  0  0  0
   -0.7232  -54.0793  -20.9309 C   0  0  0  0  0  0  0  0  0  0  0  0
   -0.5456  -54.0274  -22.2886 C   0  0  0  0  0  0  0  0  0  0  0  0
   -1.3368  -55.1049  -23.3925 Cl  0  0  0  0  0  0  0  0  0  0  0  0
    0.3249  -53.0444  -22.8132 C   0  0  0  0  0  0  0  0  0  0  0  0
    0.9026  -52.2444  -21.9166 N   0  0  0  0  0  0  0  0  0  0  0  0
    1.4355  -51.3457  -19.7603 N   0  0  0  0  0  0  0  0  0  0  0  0
    2.4217  -51.0913  -20.1285 H   0  0  0  0  0  0  0  0  0  0  0  0
    1.7637  -49.6370  -18.0864 C   0  0  0  0  0  0  0  0  0  0  0  0
    1.3929  -49.0035  -16.9241 C   0  0  0  0  0  0  0  0  0  0  0  0
    0.3043  -49.4008  -16.1963 C   0  0  0  0  0  0  0  0  0  0  0  0
   -0.4223  -50.4555  -16.6495 C   0  0  0  0  0  0  0  0  0  0  0  0
   -0.0391  -51.1020  -17.8412 C   0  0  0  0  0  0  0  0  0  0  0  0
    1.0327  -50.7320  -18.5828 C   0  0  0  0  0  0  0  0  0  0  0  0
   -0.0040  -48.6808  -15.0065 N   0  0  0  0  0  0  0  0  0  0  0  0
   -1.0675  -47.6894  -14.9343 C   0  0  0  0  0  0  0  0  0  0  0  0
   -1.0402  -47.1344  -13.5471 C   0  0  0  0  0  0  0  0  0  0  0  0
    0.3538  -47.4459  -13.0494 C   0  0  0  0  0  0  0  0  0  0  0  0
    0.6359  -48.7788  -13.7134 C   0  0  0  0  0  0  0  0  0  0  0  0
    2.9017  -47.8886  -19.3036 C   0  0  0  0  0  0  0  0  0  0  0  0
    2.8708  -49.2115  -18.8011 O   0  0  0  0  0  0  0  0  0  0  0  0
    0.5237  -53.0365  -24.2006 N   0  0  0  0  0  0  0  0  0  0  0  0
   -0.0834  -53.6731  -24.7607 H   0  0  0  0  0  0  0  0  0  0  0  0
    1.4436  -52.2373  -24.8999 C   0  0  0  0  0  0  0  0  0  0  0  0
    2.1283  -51.2142  -24.2335 C   0  0  0  0  0  0  0  0  0  0  0  0
    2.9476  -50.3358  -24.9353 C   0  0  0  0  0  0  0  0  0  0  0  0
    3.0650  -50.4972  -26.2895 C   0  0  0  0  0  0  0  0  0  0  0  0
    2.4167  -51.4786  -26.9723 C   0  0  0  0  0  0  0  0  0  0  0  0
    1.5766  -52.3907  -26.2853 C   0  0  0  0  0  0  0  0  0  0  0  0
    0.8616  -53.6791  -27.1726 S   0  0  0  0  0  0  0  0  0  0  0  0
    0.5182  -54.8053  -26.1483 O   0  0  0  0  0  0  0  0  0  0  0  0
    1.8167  -54.2770  -28.1641 O   0  0  0  0  0  0  0  0  0  0  0  0
   -0.6607  -53.2516  -27.8901 C   0  0  0  0  0  0  0  0  0  0  0  0
   -1.3853  -52.2294  -26.9993 C   0  0  0  0  0  0  0  0  0  0  0  0
   -0.5844  -52.6429  -29.2459 C   0  0  0  0  0  0  0  0  0  0  0  0
 21 22  1  0  0  0
 22 10  1  0  0  0
 10 11  2  0  0  0
 11 12  1  0  0  0
 12 13  2  0  0  0
 13 14  1  0  0  0
 14 15  2  0  0  0
 15  8  1  0  0  0
  8  1  1  0  0  0
  1  2  2  0  0  0
  2  3  1  0  0  0
  3  4  2  0  0  0
  4  5  1  0  0  0
  4  6  1  0  0  0
  6 23  1  0  0  0
 23 25  1  0  0  0
 25 26  2  0  0  0
 26 27  1  0  0  0
 27 28  2  0  0  0
 28 29  1  0  0  0
 29 30  2  0  0  0
 30 31  1  0  0  0
 31 32  2  0  0  0
 31 33  2  0  0  0
 31 34  1  0  0  0
 34 35  1  0  0  0
 34 36  1  0  0  0
  6  7  2  0  0  0
 12 16  1  0  0  0
 16 17  1  0  0  0
 17 18  1  0  0  0
 18 19  1  0  0  0
 19 20  1  0  0  0
 15 10  1  0  0  0
  7  1  1  0  0  0
 20 16  1  0  0  0
 30 25  1  0  0  0
  8  9  1  0  0  0
 23 24  1  0  0  0
M  END
> <minimizedAffinity>
-7.84643

> <CNNscore>
0.1584171802

> <CNNaffinity>
7.0138535500

> <CNN_VS>
1.1111148596

> <CNNaffinity_variance>
0.2373212129

$$$$
